
 OpenBabel12022515093D

117122  0  0  1  0  0  0  0  0999 V2000
  -10.9918   17.6021   -1.0178 O   0  0  0  0  0  0  0  0  0  0  0  0
  -13.3341   18.2368   -0.9868 O   0  0  0  0  0  0  0  0  0  0  0  0
  -10.2088   13.5961    5.6180 O   0  0  0  0  0  0  0  0  0  0  0  0
   -7.3147    9.0053    2.0335 O   0  0  0  0  0  0  0  0  0  0  0  0
  -13.2634   17.3489   -3.9679 O   0  0  0  0  0  0  0  0  0  0  0  0
  -11.1992   10.1034    4.8253 O   0  0  0  0  0  0  0  0  0  0  0  0
   -7.6750   10.6496    0.5178 O   0  0  0  0  0  0  0  0  0  0  0  0
  -13.4694   14.4552   -3.0555 O   0  0  0  0  0  0  0  0  0  0  0  0
  -14.8487   14.8188   -0.4497 O   0  0  0  0  0  0  0  0  0  0  0  0
  -12.7087   11.3878    6.1693 O   0  0  0  0  0  0  0  0  0  0  0  0
  -15.6007   10.0652    7.4629 N   0  0  0  0  0  0  0  0  0  0  0  0
   -9.4213   15.2219    1.0918 C   0  0  2  0  0  0  0  0  0  0  0  0
   -9.3388   13.8170    1.6599 C   0  0  1  0  0  0  0  0  0  0  0  0
   -9.9156   16.1632    2.1652 C   0  0  2  0  0  0  0  0  0  0  0  0
   -7.9815   13.7914    2.4231 C   0  0  2  0  0  0  0  0  0  0  0  0
  -10.1956   15.4435   -0.1838 C   0  0  0  0  0  0  0  0  0  0  0  0
  -10.3314   17.3731    1.3289 C   0  0  0  0  0  0  0  0  0  0  0  0
  -10.9823   16.7193    0.0833 C   0  0  1  0  0  0  0  0  0  0  0  0
   -8.1522   12.3514    3.0013 C   0  0  2  0  0  0  0  0  0  0  0  0
  -10.2196   13.2620    2.8457 C   0  0  0  0  0  0  0  0  0  0  0  0
   -8.8145   16.1322    3.2263 C   0  0  0  0  0  0  0  0  0  0  0  0
   -7.9553   15.0760    3.3447 C   0  0  0  0  0  0  0  0  0  0  0  0
   -9.4667   12.4991    3.7020 C   0  0  0  0  0  0  0  0  0  0  0  0
   -7.0186   11.3135    2.8079 C   0  0  0  0  0  0  0  0  0  0  0  0
   -9.7843   12.5213    5.1607 C   0  0  0  0  0  0  0  0  0  0  0  0
  -12.1997   17.8372   -1.7587 C   0  0  2  0  0  0  0  0  0  0  0  0
   -9.5826   11.3538    6.1525 C   0  0  1  0  0  0  0  0  0  0  0  0
   -7.3669   10.3086    1.6611 C   0  0  0  0  0  0  0  0  0  0  0  0
  -12.5547   16.7856   -2.8379 C   0  0  1  0  0  0  0  0  0  0  0  0
  -10.3113   10.0090    5.9253 C   0  0  2  0  0  0  0  0  0  0  0  0
  -13.2234   15.5674   -2.1753 C   0  0  1  0  0  0  0  0  0  0  0  0
  -14.3914   15.9427   -1.2344 C   0  0  2  0  0  0  0  0  0  0  0  0
  -14.1240   17.2159   -0.3812 C   0  0  2  0  0  0  0  0  0  0  0  0
   -8.2217   11.3039    6.8323 C   0  0  0  0  0  0  0  0  0  0  0  0
   -9.5321    8.6765    5.9755 C   0  0  0  0  0  0  0  0  0  0  0  0
   -8.5858    8.4439    2.4572 C   0  0  2  0  0  0  0  0  0  0  0  0
   -9.5731    7.7956    4.7281 C   0  0  0  0  0  0  0  0  0  0  0  0
   -8.3185    8.0024    3.8969 C   0  0  0  0  0  0  0  0  0  0  0  0
  -15.4386   17.8634    0.0462 C   0  0  0  0  0  0  0  0  0  0  0  0
  -12.5692   10.3673    5.1901 C   0  0  2  0  0  0  0  0  0  0  0  0
   -8.9685    7.2429    1.5629 C   0  0  0  0  0  0  0  0  0  0  0  0
  -13.3042    9.0450    5.3779 C   0  0  0  0  0  0  0  0  0  0  0  0
  -14.4742   18.0572   -3.7608 C   0  0  0  0  0  0  0  0  0  0  0  0
  -13.5811    8.7037    6.8219 C   0  0  0  0  0  0  0  0  0  0  0  0
  -14.1351    9.8750    7.6368 C   0  0  1  0  0  0  0  0  0  0  0  0
  -13.2813   11.1533    7.4560 C   0  0  1  0  0  0  0  0  0  0  0  0
  -14.4113   14.6247   -4.0976 C   0  0  0  0  0  0  0  0  0  0  0  0
  -10.4451    7.2216    1.1757 C   0  0  0  0  0  0  0  0  0  0  0  0
  -14.0769   14.4496    0.6842 C   0  0  0  0  0  0  0  0  0  0  0  0
  -12.2479   11.2877    8.5851 C   0  0  0  0  0  0  0  0  0  0  0  0
  -16.1694   10.7256    8.6491 C   0  0  0  0  0  0  0  0  0  0  0  0
  -16.0050   10.8092    6.2681 C   0  0  0  0  0  0  0  0  0  0  0  0
   -8.4029   15.5405    0.7993 H   0  0  0  0  0  0  0  0  0  0  0  0
   -9.3525   13.1072    0.8232 H   0  0  0  0  0  0  0  0  0  0  0  0
  -10.8395   15.8076    2.6439 H   0  0  0  0  0  0  0  0  0  0  0  0
   -7.1223   13.8557    1.7466 H   0  0  0  0  0  0  0  0  0  0  0  0
   -9.5161   15.5557   -1.0385 H   0  0  0  0  0  0  0  0  0  0  0  0
  -10.8319   14.5836   -0.4016 H   0  0  0  0  0  0  0  0  0  0  0  0
   -9.4966   18.0271    1.0649 H   0  0  0  0  0  0  0  0  0  0  0  0
  -11.0812   17.9843    1.8472 H   0  0  0  0  0  0  0  0  0  0  0  0
  -11.9662   16.3800    0.3557 H   0  0  0  0  0  0  0  0  0  0  0  0
   -8.6721   11.8387    2.1835 H   0  0  0  0  0  0  0  0  0  0  0  0
  -11.1759   13.6909    3.1158 H   0  0  0  0  0  0  0  0  0  0  0  0
   -8.7792   16.9605    3.9314 H   0  0  0  0  0  0  0  0  0  0  0  0
   -7.2210   15.1068    4.1518 H   0  0  0  0  0  0  0  0  0  0  0  0
   -6.7721   10.7845    3.7278 H   0  0  0  0  0  0  0  0  0  0  0  0
   -6.1044   11.8153    2.4596 H   0  0  0  0  0  0  0  0  0  0  0  0
  -11.9467   18.7430   -2.3242 H   0  0  0  0  0  0  0  0  0  0  0  0
  -10.1815   11.7608    6.9813 H   0  0  0  0  0  0  0  0  0  0  0  0
  -11.6189   16.4284   -3.2870 H   0  0  0  0  0  0  0  0  0  0  0  0
  -10.9206    9.8787    6.8180 H   0  0  0  0  0  0  0  0  0  0  0  0
  -12.4595   15.1380   -1.5339 H   0  0  0  0  0  0  0  0  0  0  0  0
  -15.2544   16.1465   -1.8679 H   0  0  0  0  0  0  0  0  0  0  0  0
  -13.6601   16.9759    0.5723 H   0  0  0  0  0  0  0  0  0  0  0  0
   -8.2958   10.7413    7.7737 H   0  0  0  0  0  0  0  0  0  0  0  0
   -7.4569   10.8383    6.2096 H   0  0  0  0  0  0  0  0  0  0  0  0
   -7.8803   12.3108    7.0973 H   0  0  0  0  0  0  0  0  0  0  0  0
  -10.0018    8.0748    6.7699 H   0  0  0  0  0  0  0  0  0  0  0  0
   -8.5095    8.8053    6.3417 H   0  0  0  0  0  0  0  0  0  0  0  0
   -9.3663    9.2156    2.4278 H   0  0  0  0  0  0  0  0  0  0  0  0
   -9.5984    6.7461    5.0511 H   0  0  0  0  0  0  0  0  0  0  0  0
  -10.4899    7.9405    4.1531 H   0  0  0  0  0  0  0  0  0  0  0  0
   -7.7319    7.0733    3.8961 H   0  0  0  0  0  0  0  0  0  0  0  0
   -7.6576    8.7346    4.3734 H   0  0  0  0  0  0  0  0  0  0  0  0
  -16.0360   17.1733    0.6490 H   0  0  0  0  0  0  0  0  0  0  0  0
  -15.2388   18.7623    0.6402 H   0  0  0  0  0  0  0  0  0  0  0  0
  -16.0219   18.1789   -0.8236 H   0  0  0  0  0  0  0  0  0  0  0  0
  -12.9767   10.8095    4.2739 H   0  0  0  0  0  0  0  0  0  0  0  0
   -8.3666    7.2330    0.6476 H   0  0  0  0  0  0  0  0  0  0  0  0
   -8.7556    6.2969    2.0781 H   0  0  0  0  0  0  0  0  0  0  0  0
  -14.2498    9.0794    4.8309 H   0  0  0  0  0  0  0  0  0  0  0  0
  -12.7500    8.2237    4.9072 H   0  0  0  0  0  0  0  0  0  0  0  0
  -15.2803   17.3910   -3.4552 H   0  0  0  0  0  0  0  0  0  0  0  0
  -14.3635   18.8845   -3.0588 H   0  0  0  0  0  0  0  0  0  0  0  0
  -14.7795   18.4868   -4.7203 H   0  0  0  0  0  0  0  0  0  0  0  0
  -14.2581    7.8418    6.8745 H   0  0  0  0  0  0  0  0  0  0  0  0
  -12.6441    8.3656    7.2841 H   0  0  0  0  0  0  0  0  0  0  0  0
  -14.0175    9.5363    8.6765 H   0  0  0  0  0  0  0  0  0  0  0  0
  -13.9163   12.0299    7.6218 H   0  0  0  0  0  0  0  0  0  0  0  0
  -15.3849   14.9355   -3.7149 H   0  0  0  0  0  0  0  0  0  0  0  0
  -14.0493   15.3162   -4.8603 H   0  0  0  0  0  0  0  0  0  0  0  0
  -14.5399   13.6565   -4.5916 H   0  0  0  0  0  0  0  0  0  0  0  0
  -10.6710    8.0228    0.4655 H   0  0  0  0  0  0  0  0  0  0  0  0
  -10.6973    6.2693    0.6945 H   0  0  0  0  0  0  0  0  0  0  0  0
  -11.1018    7.3348    2.0427 H   0  0  0  0  0  0  0  0  0  0  0  0
  -13.0148   14.3559    0.4545 H   0  0  0  0  0  0  0  0  0  0  0  0
  -14.2285   15.1638    1.4987 H   0  0  0  0  0  0  0  0  0  0  0  0
  -14.4302   13.4779    1.0395 H   0  0  0  0  0  0  0  0  0  0  0  0
  -11.6814   12.2181    8.4809 H   0  0  0  0  0  0  0  0  0  0  0  0
  -12.7432   11.3098    9.5620 H   0  0  0  0  0  0  0  0  0  0  0  0
  -11.5353   10.4609    8.6134 H   0  0  0  0  0  0  0  0  0  0  0  0
  -15.8240   11.7596    8.7636 H   0  0  0  0  0  0  0  0  0  0  0  0
  -17.2626   10.7374    8.5919 H   0  0  0  0  0  0  0  0  0  0  0  0
  -15.9152   10.1784    9.5642 H   0  0  0  0  0  0  0  0  0  0  0  0
  -15.5645   11.8090    6.2054 H   0  0  0  0  0  0  0  0  0  0  0  0
  -15.7694   10.2698    5.3516 H   0  0  0  0  0  0  0  0  0  0  0  0
  -17.0940   10.9333    6.2514 H   0  0  0  0  0  0  0  0  0  0  0  0
  2 26  1  0  0  0  0
  2 33  1  0  0  0  0
  3 25  2  0  0  0  0
  4 28  1  0  0  0  0
  4 36  1  0  0  0  0
  5 43  1  0  0  0  0
  7 28  2  0  0  0  0
  8 47  1  0  0  0  0
  9 49  1  0  0  0  0
 10 40  1  0  0  0  0
 10 46  1  0  0  0  0
 11 51  1  0  0  0  0
 11 52  1  0  0  0  0
 12 13  1  1  0  0  0
 12 16  1  0  0  0  0
 12 53  1  0  0  0  0
 13 15  1  1  0  0  0
 13 20  1  0  0  0  0
 13 54  1  0  0  0  0
 14 12  1  6  0  0  0
 14 17  1  0  0  0  0
 14 21  1  0  0  0  0
 14 55  1  0  0  0  0
 15 19  1  1  0  0  0
 15 22  1  0  0  0  0
 15 56  1  0  0  0  0
 16 18  1  0  0  0  0
 16 57  1  0  0  0  0
 16 58  1  0  0  0  0
 17 18  1  0  0  0  0
 17 59  1  0  0  0  0
 17 60  1  0  0  0  0
 18  1  1  0  0  0  0
 18 61  1  1  0  0  0
 19 23  1  0  0  0  0
 19 24  1  0  0  0  0
 19 62  1  6  0  0  0
 20 23  2  0  0  0  0
 20 63  1  0  0  0  0
 21 22  2  0  0  0  0
 21 64  1  0  0  0  0
 22 65  1  0  0  0  0
 23 25  1  0  0  0  0
 24 28  1  0  0  0  0
 24 66  1  0  0  0  0
 24 67  1  0  0  0  0
 25 27  1  0  0  0  0
 26  1  1  0  0  0  0
 26 29  1  6  0  0  0
 26 68  1  0  0  0  0
 27 30  1  6  0  0  0
 27 34  1  0  0  0  0
 27 69  1  0  0  0  0
 29  5  1  0  0  0  0
 29 31  1  1  0  0  0
 29 70  1  0  0  0  0
 30 35  1  0  0  0  0
 30 71  1  1  0  0  0
 30  6  1  0  0  0  0
 31  8  1  0  0  0  0
 31 32  1  1  0  0  0
 31 72  1  0  0  0  0
 32 33  1  1  0  0  0
 32 73  1  0  0  0  0
 32  9  1  0  0  0  0
 33 74  1  1  0  0  0
 33 39  1  0  0  0  0
 34 75  1  0  0  0  0
 34 76  1  0  0  0  0
 34 77  1  0  0  0  0
 35 37  1  0  0  0  0
 35 78  1  0  0  0  0
 35 79  1  0  0  0  0
 36 38  1  0  0  0  0
 36 41  1  0  0  0  0
 36 80  1  6  0  0  0
 37 38  1  0  0  0  0
 37 81  1  0  0  0  0
 37 82  1  0  0  0  0
 38 83  1  0  0  0  0
 38 84  1  0  0  0  0
 39 85  1  0  0  0  0
 39 86  1  0  0  0  0
 39 87  1  0  0  0  0
 40  6  1  0  0  0  0
 40 42  1  0  0  0  0
 40 88  1  6  0  0  0
 41 48  1  0  0  0  0
 41 89  1  0  0  0  0
 41 90  1  0  0  0  0
 42 44  1  0  0  0  0
 42 91  1  0  0  0  0
 42 92  1  0  0  0  0
 43 93  1  0  0  0  0
 43 94  1  0  0  0  0
 43 95  1  0  0  0  0
 44 45  1  0  0  0  0
 44 96  1  0  0  0  0
 44 97  1  0  0  0  0
 45 11  1  0  0  0  0
 45 46  1  6  0  0  0
 45 98  1  0  0  0  0
 46 50  1  0  0  0  0
 46 99  1  1  0  0  0
 47100  1  0  0  0  0
 47101  1  0  0  0  0
 47102  1  0  0  0  0
 48103  1  0  0  0  0
 48104  1  0  0  0  0
 48105  1  0  0  0  0
 49106  1  0  0  0  0
 49107  1  0  0  0  0
 49108  1  0  0  0  0
 50109  1  0  0  0  0
 50110  1  0  0  0  0
 50111  1  0  0  0  0
 51112  1  0  0  0  0
 51113  1  0  0  0  0
 51114  1  0  0  0  0
 52115  1  0  0  0  0
 52116  1  0  0  0  0
 52117  1  0  0  0  0
M  END
>  <MOL Chiral Flag>
1

>  <PUBCHEM_COMPOUND_CID>
443059

>  <PUBCHEM_COMPOUND_CANONICALIZED>
1

>  <PUBCHEM_CACTVS_COMPLEXITY>
1290

>  <PUBCHEM_CACTVS_HBOND_ACCEPTOR>
11

>  <PUBCHEM_CACTVS_HBOND_DONOR>
0

>  <PUBCHEM_CACTVS_ROTATABLE_BOND>
9

>  <PUBCHEM_CACTVS_SUBSKEYS>
AAADcfB+PAAAAAAAAAAAAAAAAAAAAYIAAAAkSIAAAAAAAEAAAAAAHgAAAAAADTzxgAcCCAMABACIAqDSCAAAAAAgAAAICAEIAEgTABYAgQAnAAAFoAAeAYPo7vyugAAAAAAAAAAAAAAAAAAAAIAACAAAAA==

>  <PUBCHEM_IUPAC_OPENEYE_NAME>
(1S,2R,5S,7R,9R,10S,14R,15S,19S)-15-[(2R,5S,6R)-5-(dimethylamino)-6-methyl-tetrahydropyran-2-yl]oxy-19-ethyl-14-methyl-7-[(2R,3R,4R,5S,6S)-3,4,5-trimethoxy-6-methyl-tetrahydropyran-2-yl]oxy-20-oxatetracyclo[10.10.0.02,10.05,9]docosa-3,11-diene-13,21-dione

>  <PUBCHEM_IUPAC_CAS_NAME>
(1S,2R,5S,7R,9R,10S,14R,15S,19S)-15-[[(2R,5S,6R)-5-(dimethylamino)-6-methyl-2-oxanyl]oxy]-19-ethyl-14-methyl-7-[[(2R,3R,4R,5S,6S)-3,4,5-trimethoxy-6-methyl-2-oxanyl]oxy]-20-oxatetracyclo[10.10.0.02,10.05,9]docosa-3,11-diene-13,21-dione

>  <PUBCHEM_IUPAC_NAME_MARKUP>
(1<I>S</I>,2<I>R</I>,5<I>S</I>,7<I>R</I>,9<I>R</I>,10<I>S</I>,14<I>R</I>,15<I>S</I>,19<I>S</I>)-15-[(2<I>R</I>,5<I>S</I>,6<I>R</I>)-5-(dimethylamino)-6-methyloxan-2-yl]oxy-19-ethyl-14-methyl-7-[(2<I>R</I>,3<I>R</I>,4<I>R</I>,5<I>S</I>,6<I>S</I>)-3,4,5-trimethoxy-6-methyloxan-2-yl]oxy-20-oxatetracyclo[10.10.0.0<SUP>2,10</SUP>.0<SUP>5,9</SUP>]docosa-3,11-diene-13,21-dione

>  <PUBCHEM_IUPAC_NAME>
(1S,2R,5S,7R,9R,10S,14R,15S,19S)-15-[(2R,5S,6R)-5-(dimethylamino)-6-methyloxan-2-yl]oxy-19-ethyl-14-methyl-7-[(2R,3R,4R,5S,6S)-3,4,5-trimethoxy-6-methyloxan-2-yl]oxy-20-oxatetracyclo[10.10.0.02,10.05,9]docosa-3,11-diene-13,21-dione

>  <PUBCHEM_IUPAC_SYSTEMATIC_NAME>
(1S,2R,5S,7R,9R,10S,14R,15S,19S)-15-[(2R,5S,6R)-5-(dimethylamino)-6-methyl-oxan-2-yl]oxy-19-ethyl-14-methyl-7-[(2R,3R,4R,5S,6S)-3,4,5-trimethoxy-6-methyl-oxan-2-yl]oxy-20-oxatetracyclo[10.10.0.02,10.05,9]docosa-3,11-diene-13,21-dione

>  <PUBCHEM_IUPAC_TRADITIONAL_NAME>
(1S,2R,5S,7R,9R,10S,14R,15S,19S)-15-[(2R,5S,6R)-5-(dimethylamino)-6-methyl-tetrahydropyran-2-yl]oxy-19-ethyl-14-methyl-7-[(2R,3R,4R,5S,6S)-3,4,5-trimethoxy-6-methyl-tetrahydropyran-2-yl]oxy-20-oxatetracyclo[10.10.0.02,10.05,9]docosa-3,11-diene-13,21-quinone

>  <PUBCHEM_IUPAC_INCHI>
InChI=1S/C41H65NO10/c1-10-26-12-11-13-34(52-36-17-16-33(42(5)6)23(3)48-36)22(2)37(44)32-20-30-28(31(32)21-35(43)50-26)15-14-25-18-27(19-29(25)30)51-41-40(47-9)39(46-8)38(45-7)24(4)49-41/h14-15,20,22-31,33-34,36,38-41H,10-13,16-19,21H2,1-9H3/t22-,23-,24+,25-,26+,27-,28-,29-,30-,31+,33+,34+,36+,38+,39-,40-,41+/m1/s1

>  <PUBCHEM_IUPAC_INCHIKEY>
SRJQTHAZUNRMPR-UYQKXTDMSA-N

>  <PUBCHEM_XLOGP3_AA>
4.9

>  <PUBCHEM_EXACT_MASS>
731.46084727

>  <PUBCHEM_MOLECULAR_FORMULA>
C41H65NO10

>  <PUBCHEM_MOLECULAR_WEIGHT>
732.0

>  <PUBCHEM_SMILES>
CC[C@H]1CCC[C@@H]([C@H](C(=O)C2=C[C@H]3[C@@H]4C[C@@H](C[C@H]4C=C[C@H]3[C@@H]2CC(=O)O1)O[C@H]5[C@@H]([C@@H]([C@H]([C@@H](O5)C)OC)OC)OC)C)O[C@H]6CC[C@@H]([C@H](O6)C)N(C)C

>  <PUBCHEM_CONNECTIVITY_SMILES>
CCC1CCCC(C(C(=O)C2=CC3C4CC(CC4C=CC3C2CC(=O)O1)OC5C(C(C(C(O5)C)OC)OC)OC)C)OC6CCC(C(O6)C)N(C)C

>  <PUBCHEM_CACTVS_TPSA>
111

>  <PUBCHEM_MONOISOTOPIC_WEIGHT>
731.46084727

>  <PUBCHEM_TOTAL_CHARGE>
0

>  <PUBCHEM_HEAVY_ATOM_COUNT>
52

>  <PUBCHEM_ATOM_DEF_STEREO_COUNT>
17

>  <PUBCHEM_ATOM_UDEF_STEREO_COUNT>
0

>  <PUBCHEM_BOND_DEF_STEREO_COUNT>
0

>  <PUBCHEM_BOND_UDEF_STEREO_COUNT>
0

>  <PUBCHEM_ISOTOPIC_ATOM_COUNT>
0

>  <PUBCHEM_COMPONENT_COUNT>
1

>  <PUBCHEM_CACTVS_TAUTO_COUNT>
-1

>  <PUBCHEM_COORDINATE_TYPE>
1
5
255

>  <PUBCHEM_BONDANNOTATIONS>
18  1  6
26  1  5
45  11  5
12  53  5
13  54  6
14  55  6
15  56  6
19  62  5
27  34  5
33  39  6
36  41  5
46  50  6
29  5  6
30  6  6
40  6  6
31  8  6
32  9  5

$$$$
