REMARK  Name = 
REMARK  18 active torsions:
REMARK  status: ('A' for Active; 'I' for Inactive)
REMARK    1  A    between atoms: O_1  and  C_18
REMARK    2  A    between atoms: O_1  and  C_27
REMARK    3  A    between atoms: O_5  and  C_30
REMARK    4  A    between atoms: O_5  and  C_44
REMARK    5  A    between atoms: O_6  and  C_31
REMARK    6  A    between atoms: O_6  and  C_41
REMARK    7  A    between atoms: O_8  and  C_32
REMARK    8  A    between atoms: O_9  and  C_35
REMARK    9  A    between atoms: O_9  and  C_49
REMARK   10  A    between atoms: N_11  and  C_46
REMARK   11  A    between atoms: N_11  and  C_51
REMARK   12  A    between atoms: N_11  and  C_52
REMARK   13  A    between atoms: C_20  and  C_25
REMARK   14  A    between atoms: C_28  and  C_33
REMARK   15  A    between atoms: C_34  and  C_40
REMARK   16  A    between atoms: C_37  and  C_42
REMARK   17  A    between atoms: C_42  and  C_48
REMARK   18  A    between atoms: C_47  and  C_50
REMARK                            x       y       z     vdW  Elec       q    Type
REMARK                         _______ _______ _______ _____ _____    ______ ____
ROOT
ATOM      1  O   UNL     1      -1.668   0.608  -0.503  0.00  0.00    -0.292 OA
ATOM      2  O   UNL     1       0.447   3.816   2.372  0.00  0.00    -0.461 OA
ATOM      3  O   UNL     1       2.139   4.309   1.035  0.00  0.00    -0.251 OA
ATOM      4  C   UNL     1       0.818   4.170  -4.109  0.00  0.00    +0.006 C 
ATOM      5  C   UNL     1       0.934   2.761  -3.539  0.00  0.00    +0.023 C 
ATOM      6  C   UNL     1       2.134   4.994  -4.055  0.00  0.00    +0.021 C 
ATOM      7  C   UNL     1       1.704   2.715  -2.182  0.00  0.00    +0.027 C 
ATOM      8  C   UNL     1       0.392   4.239  -5.600  0.00  0.00    +0.036 C 
ATOM      9  C   UNL     1       2.512   5.214  -5.517  0.00  0.00    +0.039 C 
ATOM     10  C   UNL     1       1.115   5.505  -6.077  0.00  0.00    +0.122 C 
ATOM     11  C   UNL     1       0.578   2.900  -1.119  0.00  0.00    +0.040 C 
ATOM     12  C   UNL     1       3.174   4.595  -3.068  0.00  0.00    -0.073 C 
ATOM     13  C   UNL     1      -0.415   2.201  -3.164  0.00  0.00    -0.015 C 
ATOM     14  C   UNL     1       2.895   3.647  -2.137  0.00  0.00    -0.023 C 
ATOM     15  C   UNL     1      -0.597   2.219  -1.835  0.00  0.00    -0.004 C 
ATOM     16  C   UNL     1       0.869   2.436   0.337  0.00  0.00    +0.129 C 
ATOM     17  C   UNL     1       4.389   5.476  -3.060  0.00  0.00    +0.039 C 
ATOM     18  C   UNL     1      -1.810   1.628  -1.174  0.00  0.00    +0.164 C 
ATOM     19  C   UNL     1      -3.171   2.345  -1.302  0.00  0.00    +0.086 C 
ATOM     20  C   UNL     1       1.155   3.614   1.248  0.00  0.00    +0.308 C 
ATOM     21  C   UNL     1      -3.332   3.644  -0.436  0.00  0.00    +0.132 C 
ATOM     22  C   UNL     1      -4.349   1.395  -1.005  0.00  0.00    +0.018 C 
ATOM     23  C   UNL     1      -1.970   4.271  -0.135  0.00  0.00    +0.032 C 
ATOM     24  C   UNL     1      -0.980   3.856   2.770  0.00  0.00    +0.176 C 
ATOM     25  C   UNL     1      -1.666   5.428   0.786  0.00  0.00    +0.006 C 
ATOM     26  C   UNL     1      -1.764   5.090   2.258  0.00  0.00    +0.045 C 
ENDROOT
BRANCH  24  27
ATOM     27  C   UNL     1      -1.752   2.534   2.701  0.00  0.00    +0.041 C 
ATOM     28  C   UNL     1      -1.233   1.527   3.714  0.00  0.00    +0.007 C 
ENDBRANCH  24  27
BRANCH  10  29
ATOM     29  O   UNL     1       0.495   6.537  -5.323  0.00  0.00    -0.345 OA
BRANCH  29  31
ATOM     30  O   UNL     1      -1.065   7.894  -6.289  0.00  0.00    -0.343 OA
ATOM     31  C   UNL     1       0.242   7.856  -5.741  0.00  0.00    +0.282 C 
ATOM     32  C   UNL     1       1.381   8.569  -6.498  0.00  0.00    +0.205 C 
ATOM     33  C   UNL     1       1.182   8.474  -8.014  0.00  0.00    +0.179 C 
ATOM     34  C   UNL     1      -1.238   7.658  -7.677  0.00  0.00    +0.150 C 
ATOM     35  C   UNL     1      -0.292   8.550  -8.500  0.00  0.00    +0.177 C 
ATOM     36  C   UNL     1      -1.339   6.184  -8.056  0.00  0.00    +0.041 C 
BRANCH  32  37
ATOM     37  O   UNL     1       1.830   9.843  -5.988  0.00  0.00    -0.372 OA
ATOM     38  C   UNL     1       1.121  11.037  -6.259  0.00  0.00    +0.194 C 
ENDBRANCH  32  37
BRANCH  33  39
ATOM     39  O   UNL     1       2.063   9.356  -8.719  0.00  0.00    -0.386 OA
ATOM     40  H   UNL     1       2.589   9.837  -8.050  0.00  0.00    +0.210 HD
ENDBRANCH  33  39
BRANCH  35  41
ATOM     41  O   UNL     1      -0.730   9.925  -8.578  0.00  0.00    -0.375 OA
ATOM     42  C   UNL     1      -1.692  10.389  -7.638  0.00  0.00    +0.194 C 
ENDBRANCH  35  41
ENDBRANCH  29  31
ENDBRANCH  10  29
BRANCH  21  43
ATOM     43  O   UNL     1      -4.307   4.408  -1.145  0.00  0.00    -0.347 OA
BRANCH  43  45
ATOM     44  O   UNL     1      -5.250   6.364  -1.891  0.00  0.00    -0.347 OA
ATOM     45  C   UNL     1      -4.026   5.740  -1.525  0.00  0.00    +0.251 C 
ATOM     46  C   UNL     1      -2.876   5.842  -2.552  0.00  0.00    +0.063 C 
ATOM     47  C   UNL     1      -3.205   6.222  -3.979  0.00  0.00    +0.026 C 
ATOM     48  C   UNL     1      -4.503   6.999  -4.117  0.00  0.00    +0.085 C 
ATOM     49  C   UNL     1      -5.592   6.288  -3.267  0.00  0.00    +0.135 C 
ATOM     50  C   UNL     1      -5.877   4.836  -3.677  0.00  0.00    +0.039 C 
BRANCH  48  51
ATOM     51  N   UNL     1      -4.293   8.458  -3.891  0.00  0.00    -0.303 NA
ATOM     52  C   UNL     1      -5.507   9.218  -4.173  0.00  0.00    +0.105 C 
ATOM     53  C   UNL     1      -3.747   8.877  -2.601  0.00  0.00    +0.105 C 
ENDBRANCH  48  51
ENDBRANCH  43  45
ENDBRANCH  21  43
TORSDOF 9
