REMARK  Name = 
REMARK  17 active torsions:
REMARK  status: ('A' for Active; 'I' for Inactive)
REMARK    1  A    between atoms: O_1  and  C_18
REMARK    2  A    between atoms: O_1  and  C_26
REMARK    3  A    between atoms: O_5  and  C_30
REMARK    4  A    between atoms: O_5  and  C_40
REMARK    5  A    between atoms: O_6  and  C_29
REMARK    6  A    between atoms: O_6  and  C_43
REMARK    7  A    between atoms: O_8  and  C_31
REMARK    8  A    between atoms: O_9  and  C_34
REMARK    9  A    between atoms: O_9  and  C_48
REMARK   10  A    between atoms: N_11  and  C_45
REMARK   11  A    between atoms: N_11  and  C_50
REMARK   12  A    between atoms: N_11  and  C_51
REMARK   13  A    between atoms: C_27  and  C_33
REMARK   14  A    between atoms: C_32  and  C_39
REMARK   15  A    between atoms: C_36  and  C_41
REMARK   16  A    between atoms: C_41  and  C_47
REMARK   17  A    between atoms: C_46  and  C_49
REMARK                            x       y       z     vdW  Elec       q    Type
REMARK                         _______ _______ _______ _____ _____    ______ ____
ROOT
ATOM      1  O   UNL     1     -10.402  13.566   6.072  0.00  0.00    -0.292 OA
ATOM      2  O   UNL     1      -7.533   8.950   2.561  0.00  0.00    -0.461 OA
ATOM      3  O   UNL     1      -8.042  10.534   1.035  0.00  0.00    -0.251 OA
ATOM      4  C   UNL     1      -9.686  15.150   1.502  0.00  0.00    +0.006 C 
ATOM      5  C   UNL     1      -9.602  13.754   2.091  0.00  0.00    +0.023 C 
ATOM      6  C   UNL     1     -10.190  16.105   2.562  0.00  0.00    +0.018 C 
ATOM      7  C   UNL     1      -8.242  13.752   2.853  0.00  0.00    +0.027 C 
ATOM      8  C   UNL     1     -10.445  15.359   0.213  0.00  0.00    +0.036 C 
ATOM      9  C   UNL     1     -10.593  17.306   1.706  0.00  0.00    +0.039 C 
ATOM     10  C   UNL     1     -11.223  16.644   0.456  0.00  0.00    +0.122 C 
ATOM     11  C   UNL     1      -8.390  12.319   3.452  0.00  0.00    +0.040 C 
ATOM     12  C   UNL     1     -10.471  13.211   3.293  0.00  0.00    -0.015 C 
ATOM     13  C   UNL     1      -9.101  16.099   3.627  0.00  0.00    -0.027 C 
ATOM     14  C   UNL     1      -8.234  15.049   3.774  0.00  0.00    -0.026 C 
ATOM     15  C   UNL     1      -9.701  12.466   4.149  0.00  0.00    -0.004 C 
ATOM     16  C   UNL     1      -7.249  11.282   3.255  0.00  0.00    +0.129 C 
ATOM     17  C   UNL     1     -10.008  12.484   5.617  0.00  0.00    +0.164 C 
ATOM     18  C   UNL     1      -9.810  11.315   6.593  0.00  0.00    +0.086 C 
ATOM     19  C   UNL     1      -7.633  10.243   2.163  0.00  0.00    +0.308 C 
ATOM     20  C   UNL     1     -10.523   9.976   6.338  0.00  0.00    +0.132 C 
ATOM     21  C   UNL     1      -8.443  11.273   7.267  0.00  0.00    +0.018 C 
ATOM     22  C   UNL     1      -9.727   8.646   6.409  0.00  0.00    +0.032 C 
ATOM     23  C   UNL     1      -8.804   8.355   2.927  0.00  0.00    +0.176 C 
ATOM     24  C   UNL     1      -9.798   7.717   5.193  0.00  0.00    +0.006 C 
ATOM     25  C   UNL     1      -8.543   7.863   4.351  0.00  0.00    +0.045 C 
ENDROOT
BRANCH  23  26
ATOM     26  C   UNL     1      -9.166   7.183   1.987  0.00  0.00    +0.041 C 
ATOM     27  C   UNL     1     -10.629   7.188   1.549  0.00  0.00    +0.007 C 
ENDBRANCH  23  26
BRANCH  10  28
ATOM     28  O   UNL     1     -11.206  17.524  -0.646  0.00  0.00    -0.345 OA
BRANCH  28  30
ATOM     29  O   UNL     1     -13.531  18.207  -0.654  0.00  0.00    -0.343 OA
ATOM     30  C   UNL     1     -12.403  17.755  -1.403  0.00  0.00    +0.282 C 
ATOM     31  C   UNL     1     -12.758  16.658  -2.425  0.00  0.00    +0.205 C 
ATOM     32  C   UNL     1     -13.506  15.496  -1.764  0.00  0.00    +0.179 C 
ATOM     33  C   UNL     1     -14.330  17.227   0.004  0.00  0.00    +0.150 C 
ATOM     34  C   UNL     1     -14.632  15.940  -0.807  0.00  0.00    +0.177 C 
ATOM     35  C   UNL     1     -15.631  17.912   0.415  0.00  0.00    +0.041 C 
BRANCH  31  36
ATOM     36  O   UNL     1     -13.434  17.135  -3.620  0.00  0.00    -0.372 OA
ATOM     37  C   UNL     1     -14.656  17.844  -3.480  0.00  0.00    +0.194 C 
ENDBRANCH  31  36
BRANCH  32  38
ATOM     38  O   UNL     1     -14.017  14.610  -2.780  0.00  0.00    -0.386 OA
ATOM     39  H   UNL     1     -14.085  15.133  -3.604  0.00  0.00    +0.210 HD
ENDBRANCH  32  38
BRANCH  34  40
ATOM     40  O   UNL     1     -15.113  14.848   0.008  0.00  0.00    -0.375 OA
ATOM     41  C   UNL     1     -14.336  14.475   1.136  0.00  0.00    +0.194 C 
ENDBRANCH  34  40
ENDBRANCH  28  30
ENDBRANCH  10  28
BRANCH  20  42
ATOM     42  O   UNL     1     -11.402  10.056   5.237  0.00  0.00    -0.347 OA
BRANCH  42  44
ATOM     43  O   UNL     1     -12.921  11.341   6.572  0.00  0.00    -0.347 OA
ATOM     44  C   UNL     1     -12.775  10.323   5.590  0.00  0.00    +0.251 C 
ATOM     45  C   UNL     1     -13.527   9.008   5.763  0.00  0.00    +0.063 C 
ATOM     46  C   UNL     1     -13.816   8.657   7.202  0.00  0.00    +0.026 C 
ATOM     47  C   UNL     1     -14.367   9.826   8.021  0.00  0.00    +0.085 C 
ATOM     48  C   UNL     1     -13.508  11.103   7.852  0.00  0.00    +0.135 C 
ATOM     49  C   UNL     1     -12.489  11.234   8.994  0.00  0.00    +0.039 C 
BRANCH  47  50
ATOM     50  N   UNL     1     -15.832  10.021   7.842  0.00  0.00    -0.303 NA
ATOM     51  C   UNL     1     -16.404  10.670   9.033  0.00  0.00    +0.105 C 
ATOM     52  C   UNL     1     -16.227  10.783   6.656  0.00  0.00    +0.105 C 
ENDBRANCH  47  50
ENDBRANCH  42  44
ENDBRANCH  20  42
TORSDOF 9
