
 OpenBabel12022515433D

114119  0  0  1  0  0  0  0  0999 V2000
  -11.2060   17.5241   -0.6462 O   0  0  0  0  0  0  0  0  0  0  0  0
  -13.5313   18.2072   -0.6543 O   0  0  0  0  0  0  0  0  0  0  0  0
  -10.4024   13.5663    6.0721 O   0  0  0  0  0  0  0  0  0  0  0  0
   -7.5328    8.9498    2.5606 O   0  0  0  0  0  0  0  0  0  0  0  0
  -11.4022   10.0561    5.2367 O   0  0  0  0  0  0  0  0  0  0  0  0
  -13.4339   17.1349   -3.6201 O   0  0  0  0  0  0  0  0  0  0  0  0
   -8.0423   10.5339    1.0349 O   0  0  0  0  0  0  0  0  0  0  0  0
  -14.0171   14.6103   -2.7800 O   0  0  0  0  0  0  0  0  0  0  0  0
  -15.1125   14.8484    0.0084 O   0  0  0  0  0  0  0  0  0  0  0  0
  -12.9208   11.3407    6.5720 O   0  0  0  0  0  0  0  0  0  0  0  0
  -15.8315   10.0212    7.8422 N   0  0  0  0  0  0  0  0  0  0  0  0
   -9.6861   15.1504    1.5015 C   0  0  2  0  0  0  0  0  0  0  0  0
   -9.6023   13.7535    2.0909 C   0  0  1  0  0  0  0  0  0  0  0  0
  -10.1895   16.1048    2.5623 C   0  0  2  0  0  0  0  0  0  0  0  0
   -8.2417   13.7521    2.8535 C   0  0  2  0  0  0  0  0  0  0  0  0
  -10.4453   15.3591    0.2130 C   0  0  0  0  0  0  0  0  0  0  0  0
  -10.5927   17.3056    1.7063 C   0  0  0  0  0  0  0  0  0  0  0  0
  -11.2231   16.6436    0.4558 C   0  0  1  0  0  0  0  0  0  0  0  0
   -8.3902   12.3185    3.4517 C   0  0  2  0  0  0  0  0  0  0  0  0
  -10.4709   13.2115    3.2926 C   0  0  0  0  0  0  0  0  0  0  0  0
   -9.1006   16.0993    3.6269 C   0  0  0  0  0  0  0  0  0  0  0  0
   -8.2338   15.0492    3.7740 C   0  0  0  0  0  0  0  0  0  0  0  0
   -9.7014   12.4661    4.1495 C   0  0  0  0  0  0  0  0  0  0  0  0
   -7.2490   11.2816    3.2546 C   0  0  0  0  0  0  0  0  0  0  0  0
  -10.0081   12.4840    5.6166 C   0  0  0  0  0  0  0  0  0  0  0  0
  -12.4028   17.7548   -1.4031 C   0  0  2  0  0  0  0  0  0  0  0  0
   -9.8100   11.3150    6.5931 C   0  0  1  0  0  0  0  0  0  0  0  0
   -7.6330   10.2428    2.1626 C   0  0  0  0  0  0  0  0  0  0  0  0
  -12.7585   16.6577   -2.4254 C   0  0  1  0  0  0  0  0  0  0  0  0
  -10.5228    9.9760    6.3383 C   0  0  2  0  0  0  0  0  0  0  0  0
  -13.5060   15.4959   -1.7644 C   0  0  1  0  0  0  0  0  0  0  0  0
  -14.3299   17.2268    0.0036 C   0  0  2  0  0  0  0  0  0  0  0  0
   -8.4429   11.2732    7.2672 C   0  0  0  0  0  0  0  0  0  0  0  0
  -14.6319   15.9400   -0.8071 C   0  0  2  0  0  0  0  0  0  0  0  0
   -9.7270    8.6462    6.4094 C   0  0  0  0  0  0  0  0  0  0  0  0
   -8.8037    8.3555    2.9270 C   0  0  2  0  0  0  0  0  0  0  0  0
   -9.7976    7.7167    5.1931 C   0  0  0  0  0  0  0  0  0  0  0  0
   -8.5427    7.8633    4.3505 C   0  0  0  0  0  0  0  0  0  0  0  0
  -15.6310   17.9118    0.4146 C   0  0  0  0  0  0  0  0  0  0  0  0
  -12.7755   10.3232    5.5900 C   0  0  2  0  0  0  0  0  0  0  0  0
   -9.1660    7.1827    1.9873 C   0  0  0  0  0  0  0  0  0  0  0  0
  -13.5274    9.0076    5.7627 C   0  0  0  0  0  0  0  0  0  0  0  0
  -14.6565   17.8443   -3.4802 C   0  0  0  0  0  0  0  0  0  0  0  0
  -13.8158    8.6569    7.2022 C   0  0  0  0  0  0  0  0  0  0  0  0
  -14.3669    9.8265    8.0213 C   0  0  1  0  0  0  0  0  0  0  0  0
  -13.5082   11.1034    7.8518 C   0  0  1  0  0  0  0  0  0  0  0  0
  -10.6292    7.1875    1.5492 C   0  0  0  0  0  0  0  0  0  0  0  0
  -14.3357   14.4754    1.1364 C   0  0  0  0  0  0  0  0  0  0  0  0
  -12.4888   11.2340    8.9938 C   0  0  0  0  0  0  0  0  0  0  0  0
  -16.4040   10.6699    9.0327 C   0  0  0  0  0  0  0  0  0  0  0  0
  -16.2274   10.7831    6.6558 C   0  0  0  0  0  0  0  0  0  0  0  0
   -8.6662   15.4674    1.2152 H   0  0  0  0  0  0  0  0  0  0  0  0
   -9.6320   13.0274    1.2665 H   0  0  0  0  0  0  0  0  0  0  0  0
  -11.1193   15.7559    3.0315 H   0  0  0  0  0  0  0  0  0  0  0  0
   -7.3804   13.8189    2.1786 H   0  0  0  0  0  0  0  0  0  0  0  0
   -9.7554   15.4548   -0.6347 H   0  0  0  0  0  0  0  0  0  0  0  0
  -11.0907   14.5055   -0.0018 H   0  0  0  0  0  0  0  0  0  0  0  0
   -9.7546   17.9593    1.4481 H   0  0  0  0  0  0  0  0  0  0  0  0
  -11.3504   17.9242    2.2056 H   0  0  0  0  0  0  0  0  0  0  0  0
  -12.2139   16.3080    0.7045 H   0  0  0  0  0  0  0  0  0  0  0  0
   -8.9107   11.7951    2.6446 H   0  0  0  0  0  0  0  0  0  0  0  0
  -11.4267   13.6372    3.5657 H   0  0  0  0  0  0  0  0  0  0  0  0
   -9.0847   16.9387    4.3198 H   0  0  0  0  0  0  0  0  0  0  0  0
   -7.5012   15.0949    4.5767 H   0  0  0  0  0  0  0  0  0  0  0  0
   -6.9734   10.7813    4.1828 H   0  0  0  0  0  0  0  0  0  0  0  0
   -6.3540   11.7811    2.8580 H   0  0  0  0  0  0  0  0  0  0  0  0
  -12.1321   18.6285   -2.0088 H   0  0  0  0  0  0  0  0  0  0  0  0
  -10.4105   11.7194    7.4298 H   0  0  0  0  0  0  0  0  0  0  0  0
  -11.8213   16.2499   -2.8266 H   0  0  0  0  0  0  0  0  0  0  0  0
  -11.1433    9.8312    7.2304 H   0  0  0  0  0  0  0  0  0  0  0  0
  -12.7897   14.8882   -1.2138 H   0  0  0  0  0  0  0  0  0  0  0  0
  -13.8624   17.0117    0.9619 H   0  0  0  0  0  0  0  0  0  0  0  0
   -8.5037   10.6867    8.1977 H   0  0  0  0  0  0  0  0  0  0  0  0
   -7.6791   10.8316    6.6287 H   0  0  0  0  0  0  0  0  0  0  0  0
   -8.1194   12.2766    7.5499 H   0  0  0  0  0  0  0  0  0  0  0  0
  -15.4969   16.1467   -1.4419 H   0  0  0  0  0  0  0  0  0  0  0  0
  -10.1514    8.0598    7.2411 H   0  0  0  0  0  0  0  0  0  0  0  0
   -8.6930    8.7977    6.7310 H   0  0  0  0  0  0  0  0  0  0  0  0
   -9.5938    9.1195    2.9196 H   0  0  0  0  0  0  0  0  0  0  0  0
   -9.8389    6.6809    5.5558 H   0  0  0  0  0  0  0  0  0  0  0  0
  -10.7136    7.8544    4.6138 H   0  0  0  0  0  0  0  0  0  0  0  0
   -8.0126    6.9018    4.3201 H   0  0  0  0  0  0  0  0  0  0  0  0
   -7.8306    8.5419    4.8346 H   0  0  0  0  0  0  0  0  0  0  0  0
  -16.2406   17.2509    1.0377 H   0  0  0  0  0  0  0  0  0  0  0  0
  -15.4133   18.8238    0.9812 H   0  0  0  0  0  0  0  0  0  0  0  0
  -16.2102   18.2121   -0.4637 H   0  0  0  0  0  0  0  0  0  0  0  0
  -13.1666   10.7720    4.6695 H   0  0  0  0  0  0  0  0  0  0  0  0
  -14.0845   15.1330   -3.6036 H   0  0  0  0  0  0  0  0  0  0  0  0
   -8.5299    7.1838    1.0961 H   0  0  0  0  0  0  0  0  0  0  0  0
   -8.9901    6.2220    2.4884 H   0  0  0  0  0  0  0  0  0  0  0  0
  -14.4702    9.0588    5.2122 H   0  0  0  0  0  0  0  0  0  0  0  0
  -12.9811    8.1836    5.2876 H   0  0  0  0  0  0  0  0  0  0  0  0
  -15.4709   17.1641   -3.2287 H   0  0  0  0  0  0  0  0  0  0  0  0
  -14.5918   18.6635   -2.7628 H   0  0  0  0  0  0  0  0  0  0  0  0
  -14.9065   18.2839   -4.4516 H   0  0  0  0  0  0  0  0  0  0  0  0
  -14.2541    9.4813    9.0595 H   0  0  0  0  0  0  0  0  0  0  0  0
  -14.5007    7.8006    7.2438 H   0  0  0  0  0  0  0  0  0  0  0  0
  -12.8851    8.3074    7.6681 H   0  0  0  0  0  0  0  0  0  0  0  0
  -14.1425   11.9814    8.0132 H   0  0  0  0  0  0  0  0  0  0  0  0
  -10.8173    7.9908    0.8305 H   0  0  0  0  0  0  0  0  0  0  0  0
  -10.8813    6.2386    1.0606 H   0  0  0  0  0  0  0  0  0  0  0  0
  -11.3118    7.3128    2.3948 H   0  0  0  0  0  0  0  0  0  0  0  0
  -13.2795   14.3509    0.8942 H   0  0  0  0  0  0  0  0  0  0  0  0
  -14.4587   15.2058    1.9411 H   0  0  0  0  0  0  0  0  0  0  0  0
  -14.7079   13.5172    1.5092 H   0  0  0  0  0  0  0  0  0  0  0  0
  -11.9242   12.1671    8.9024 H   0  0  0  0  0  0  0  0  0  0  0  0
  -12.9952   11.2491    9.9651 H   0  0  0  0  0  0  0  0  0  0  0  0
  -11.7740   10.4092    9.0252 H   0  0  0  0  0  0  0  0  0  0  0  0
  -16.0588   11.7029    9.1542 H   0  0  0  0  0  0  0  0  0  0  0  0
  -17.4973   10.6797    8.9741 H   0  0  0  0  0  0  0  0  0  0  0  0
  -16.1498   10.1167    9.9440 H   0  0  0  0  0  0  0  0  0  0  0  0
  -15.7842   11.7828    6.6098 H   0  0  0  0  0  0  0  0  0  0  0  0
  -15.9873   10.2560    5.7336 H   0  0  0  0  0  0  0  0  0  0  0  0
  -17.3158   10.9117    6.6358 H   0  0  0  0  0  0  0  0  0  0  0  0
  2 26  1  0  0  0  0
  2 32  1  0  0  0  0
  3 25  2  0  0  0  0
  4 28  1  0  0  0  0
  4 36  1  0  0  0  0
  6 43  1  0  0  0  0
  7 28  2  0  0  0  0
  8 88  1  0  0  0  0
  9 48  1  0  0  0  0
 10 40  1  0  0  0  0
 10 46  1  0  0  0  0
 11 50  1  0  0  0  0
 11 51  1  0  0  0  0
 12 13  1  1  0  0  0
 12 16  1  0  0  0  0
 12 52  1  0  0  0  0
 13 15  1  1  0  0  0
 13 20  1  0  0  0  0
 13 53  1  0  0  0  0
 14 12  1  6  0  0  0
 14 17  1  0  0  0  0
 14 21  1  0  0  0  0
 14 54  1  0  0  0  0
 15 19  1  1  0  0  0
 15 22  1  0  0  0  0
 15 55  1  0  0  0  0
 16 18  1  0  0  0  0
 16 56  1  0  0  0  0
 16 57  1  0  0  0  0
 17 18  1  0  0  0  0
 17 58  1  0  0  0  0
 17 59  1  0  0  0  0
 18  1  1  0  0  0  0
 18 60  1  1  0  0  0
 19 23  1  0  0  0  0
 19 24  1  0  0  0  0
 19 61  1  6  0  0  0
 20 23  2  0  0  0  0
 20 62  1  0  0  0  0
 21 22  2  0  0  0  0
 21 63  1  0  0  0  0
 22 64  1  0  0  0  0
 23 25  1  0  0  0  0
 24 28  1  0  0  0  0
 24 65  1  0  0  0  0
 24 66  1  0  0  0  0
 25 27  1  0  0  0  0
 26  1  1  0  0  0  0
 26 29  1  6  0  0  0
 26 67  1  0  0  0  0
 27 30  1  6  0  0  0
 27 33  1  0  0  0  0
 27 68  1  0  0  0  0
 29  6  1  0  0  0  0
 29 31  1  1  0  0  0
 29 69  1  0  0  0  0
 30 35  1  0  0  0  0
 30 70  1  1  0  0  0
 30  5  1  0  0  0  0
 31  8  1  0  0  0  0
 31 34  1  1  0  0  0
 31 71  1  0  0  0  0
 32 34  1  6  0  0  0
 32 72  1  0  0  0  0
 32 39  1  0  0  0  0
 33 73  1  0  0  0  0
 33 74  1  0  0  0  0
 33 75  1  0  0  0  0
 34 76  1  6  0  0  0
 34  9  1  0  0  0  0
 35 37  1  0  0  0  0
 35 77  1  0  0  0  0
 35 78  1  0  0  0  0
 36 38  1  0  0  0  0
 36 41  1  0  0  0  0
 36 79  1  6  0  0  0
 37 38  1  0  0  0  0
 37 80  1  0  0  0  0
 37 81  1  0  0  0  0
 38 82  1  0  0  0  0
 38 83  1  0  0  0  0
 39 84  1  0  0  0  0
 39 85  1  0  0  0  0
 39 86  1  0  0  0  0
 40  5  1  0  0  0  0
 40 42  1  0  0  0  0
 40 87  1  6  0  0  0
 41 47  1  0  0  0  0
 41 89  1  0  0  0  0
 41 90  1  0  0  0  0
 42 44  1  0  0  0  0
 42 91  1  0  0  0  0
 42 92  1  0  0  0  0
 43 93  1  0  0  0  0
 43 94  1  0  0  0  0
 43 95  1  0  0  0  0
 44 45  1  0  0  0  0
 44 97  1  0  0  0  0
 44 98  1  0  0  0  0
 45 11  1  0  0  0  0
 45 46  1  6  0  0  0
 45 96  1  0  0  0  0
 46 49  1  0  0  0  0
 46 99  1  1  0  0  0
 47100  1  0  0  0  0
 47101  1  0  0  0  0
 47102  1  0  0  0  0
 48103  1  0  0  0  0
 48104  1  0  0  0  0
 48105  1  0  0  0  0
 49106  1  0  0  0  0
 49107  1  0  0  0  0
 49108  1  0  0  0  0
 50109  1  0  0  0  0
 50110  1  0  0  0  0
 50111  1  0  0  0  0
 51112  1  0  0  0  0
 51113  1  0  0  0  0
 51114  1  0  0  0  0
M  END
>  <MOL Chiral Flag>
1

>  <PUBCHEM_COMPOUND_CID>
23724547

>  <PUBCHEM_COMPOUND_CANONICALIZED>
1

>  <PUBCHEM_CACTVS_COMPLEXITY>
1270

>  <PUBCHEM_CACTVS_HBOND_ACCEPTOR>
11

>  <PUBCHEM_CACTVS_HBOND_DONOR>
1

>  <PUBCHEM_CACTVS_ROTATABLE_BOND>
8

>  <PUBCHEM_CACTVS_SUBSKEYS>
AAADcfB+PAAAAAAAAAAAAAAAAAAAAYIAAAAkSIAAAAAAAEAAAAAAHgAACAAADTzxgAcCCAMABgCIAqDSCAAAAAAgAAAICAEIAEgTEBYAgQAnQAAFoAAfAYPo7vyugAAAAAAAAAAAAAAAAAAAAIAACAAAAA==

>  <PUBCHEM_IUPAC_OPENEYE_NAME>
(1S,2R,5S,7R,9R,10S,14R,15S,19S)-15-[(2R,5S,6R)-5-(dimethylamino)-6-methyl-tetrahydropyran-2-yl]oxy-19-ethyl-7-[(2R,3R,4R,5R,6S)-4-hydroxy-3,5-dimethoxy-6-methyl-tetrahydropyran-2-yl]oxy-14-methyl-20-oxatetracyclo[10.10.0.02,10.05,9]docosa-3,11-diene-13,21-dione

>  <PUBCHEM_IUPAC_CAS_NAME>
(1S,2R,5S,7R,9R,10S,14R,15S,19S)-15-[[(2R,5S,6R)-5-(dimethylamino)-6-methyl-2-oxanyl]oxy]-19-ethyl-7-[[(2R,3R,4R,5R,6S)-4-hydroxy-3,5-dimethoxy-6-methyl-2-oxanyl]oxy]-14-methyl-20-oxatetracyclo[10.10.0.02,10.05,9]docosa-3,11-diene-13,21-dione

>  <PUBCHEM_IUPAC_NAME_MARKUP>
(1<I>S</I>,2<I>R</I>,5<I>S</I>,7<I>R</I>,9<I>R</I>,10<I>S</I>,14<I>R</I>,15<I>S</I>,19<I>S</I>)-15-[(2<I>R</I>,5<I>S</I>,6<I>R</I>)-5-(dimethylamino)-6-methyloxan-2-yl]oxy-19-ethyl-7-[(2<I>R</I>,3<I>R</I>,4<I>R</I>,5<I>R</I>,6<I>S</I>)-4-hydroxy-3,5-dimethoxy-6-methyloxan-2-yl]oxy-14-methyl-20-oxatetracyclo[10.10.0.0<SUP>2,10</SUP>.0<SUP>5,9</SUP>]docosa-3,11-diene-13,21-dione

>  <PUBCHEM_IUPAC_NAME>
(1S,2R,5S,7R,9R,10S,14R,15S,19S)-15-[(2R,5S,6R)-5-(dimethylamino)-6-methyloxan-2-yl]oxy-19-ethyl-7-[(2R,3R,4R,5R,6S)-4-hydroxy-3,5-dimethoxy-6-methyloxan-2-yl]oxy-14-methyl-20-oxatetracyclo[10.10.0.02,10.05,9]docosa-3,11-diene-13,21-dione

>  <PUBCHEM_IUPAC_SYSTEMATIC_NAME>
(1S,2R,5S,7R,9R,10S,14R,15S,19S)-7-[(2R,3R,4R,5R,6S)-3,5-dimethoxy-6-methyl-4-oxidanyl-oxan-2-yl]oxy-15-[(2R,5S,6R)-5-(dimethylamino)-6-methyl-oxan-2-yl]oxy-19-ethyl-14-methyl-20-oxatetracyclo[10.10.0.02,10.05,9]docosa-3,11-diene-13,21-dione

>  <PUBCHEM_IUPAC_TRADITIONAL_NAME>
(1S,2R,5S,7R,9R,10S,14R,15S,19S)-15-[(2R,5S,6R)-5-(dimethylamino)-6-methyl-tetrahydropyran-2-yl]oxy-19-ethyl-7-[(2R,3R,4R,5R,6S)-4-hydroxy-3,5-dimethoxy-6-methyl-tetrahydropyran-2-yl]oxy-14-methyl-20-oxatetracyclo[10.10.0.02,10.05,9]docosa-3,11-diene-13,21-quinone

>  <PUBCHEM_IUPAC_INCHI>
InChI=1S/C40H63NO10/c1-9-25-11-10-12-33(51-35-16-15-32(41(5)6)22(3)47-35)21(2)36(43)31-19-29-27(30(31)20-34(42)49-25)14-13-24-17-26(18-28(24)29)50-40-39(46-8)37(44)38(45-7)23(4)48-40/h13-14,19,21-30,32-33,35,37-40,44H,9-12,15-18,20H2,1-8H3/t21-,22-,23+,24-,25+,26-,27-,28-,29-,30+,32+,33+,35+,37-,38+,39-,40+/m1/s1

>  <PUBCHEM_IUPAC_INCHIKEY>
IHGXGNJRCONUAC-WNTSOVQUSA-N

>  <PUBCHEM_XLOGP3_AA>
4.4

>  <PUBCHEM_EXACT_MASS>
717.44519721

>  <PUBCHEM_MOLECULAR_FORMULA>
C40H63NO10

>  <PUBCHEM_MOLECULAR_WEIGHT>
717.9

>  <PUBCHEM_SMILES>
CC[C@H]1CCC[C@@H]([C@H](C(=O)C2=C[C@H]3[C@@H]4C[C@@H](C[C@H]4C=C[C@H]3[C@@H]2CC(=O)O1)O[C@H]5[C@@H]([C@@H]([C@H]([C@@H](O5)C)OC)O)OC)C)O[C@H]6CC[C@@H]([C@H](O6)C)N(C)C

>  <PUBCHEM_CONNECTIVITY_SMILES>
CCC1CCCC(C(C(=O)C2=CC3C4CC(CC4C=CC3C2CC(=O)O1)OC5C(C(C(C(O5)C)OC)O)OC)C)OC6CCC(C(O6)C)N(C)C

>  <PUBCHEM_CACTVS_TPSA>
122

>  <PUBCHEM_MONOISOTOPIC_WEIGHT>
717.44519721

>  <PUBCHEM_TOTAL_CHARGE>
0

>  <PUBCHEM_HEAVY_ATOM_COUNT>
51

>  <PUBCHEM_ATOM_DEF_STEREO_COUNT>
17

>  <PUBCHEM_ATOM_UDEF_STEREO_COUNT>
0

>  <PUBCHEM_BOND_DEF_STEREO_COUNT>
0

>  <PUBCHEM_BOND_UDEF_STEREO_COUNT>
0

>  <PUBCHEM_ISOTOPIC_ATOM_COUNT>
0

>  <PUBCHEM_COMPONENT_COUNT>
1

>  <PUBCHEM_CACTVS_TAUTO_COUNT>
-1

>  <PUBCHEM_COORDINATE_TYPE>
1
5
255

>  <PUBCHEM_BONDANNOTATIONS>
18  1  6
26  1  5
45  11  5
12  52  5
13  53  6
14  54  6
15  55  6
19  61  5
27  33  5
32  39  6
36  41  5
46  49  6
30  5  6
40  5  6
29  6  6
31  8  6
34  9  5

$$$$
