REMARK  Name = 
REMARK  19 active torsions:
REMARK  status: ('A' for Active; 'I' for Inactive)
REMARK    1  A    between atoms: O_1  and  C_18
REMARK    2  A    between atoms: O_1  and  C_27
REMARK    3  A    between atoms: O_5  and  C_30
REMARK    4  A    between atoms: O_5  and  C_44
REMARK    5  A    between atoms: O_6  and  C_31
REMARK    6  A    between atoms: O_6  and  C_41
REMARK    7  A    between atoms: O_8  and  C_32
REMARK    8  A    between atoms: O_8  and  C_48
REMARK    9  A    between atoms: O_9  and  C_34
REMARK   10  A    between atoms: O_9  and  C_50
REMARK   11  A    between atoms: N_11  and  C_46
REMARK   12  A    between atoms: N_11  and  C_52
REMARK   13  A    between atoms: N_11  and  C_53
REMARK   14  A    between atoms: C_20  and  C_25
REMARK   15  A    between atoms: C_28  and  C_35
REMARK   16  A    between atoms: C_33  and  C_40
REMARK   17  A    between atoms: C_37  and  C_42
REMARK   18  A    between atoms: C_42  and  C_49
REMARK   19  A    between atoms: C_47  and  C_51
REMARK                            x       y       z     vdW  Elec       q    Type
REMARK                         _______ _______ _______ _____ _____    ______ ____
ROOT
ATOM      1  O   UNL     1     -10.177  13.625   5.933  0.00  0.00    -0.292 OA
ATOM      2  O   UNL     1      -7.410   8.994   2.459  0.00  0.00    -0.461 OA
ATOM      3  O   UNL     1      -7.809  10.577   0.895  0.00  0.00    -0.251 OA
ATOM      4  C   UNL     1      -9.590  15.187   1.427  0.00  0.00    +0.006 C 
ATOM      5  C   UNL     1      -9.465  13.791   1.998  0.00  0.00    +0.023 C 
ATOM      6  C   UNL     1     -10.269  16.056   2.455  0.00  0.00    +0.021 C 
ATOM      7  C   UNL     1      -8.158  13.852   2.849  0.00  0.00    +0.027 C 
ATOM      8  C   UNL     1     -10.268  15.389   0.091  0.00  0.00    +0.036 C 
ATOM      9  C   UNL     1     -10.582  17.291   1.612  0.00  0.00    +0.039 C 
ATOM     10  C   UNL     1     -11.107  16.644   0.314  0.00  0.00    +0.122 C 
ATOM     11  C   UNL     1      -8.254  12.368   3.356  0.00  0.00    +0.040 C 
ATOM     12  C   UNL     1      -9.368  16.043   3.685  0.00  0.00    -0.073 C 
ATOM     13  C   UNL     1     -10.369  13.145   3.141  0.00  0.00    -0.015 C 
ATOM     14  C   UNL     1      -8.381  15.098   3.843  0.00  0.00    -0.023 C 
ATOM     15  C   UNL     1      -9.599  12.414   4.016  0.00  0.00    -0.004 C 
ATOM     16  C   UNL     1      -7.107  11.339   3.146  0.00  0.00    +0.129 C 
ATOM     17  C   UNL     1      -9.848  16.949   4.789  0.00  0.00    +0.039 C 
ATOM     18  C   UNL     1      -9.864  12.505   5.489  0.00  0.00    +0.164 C 
ATOM     19  C   UNL     1      -9.713  11.356   6.503  0.00  0.00    +0.086 C 
ATOM     20  C   UNL     1      -7.474  10.283   2.036  0.00  0.00    +0.308 C 
ATOM     21  C   UNL     1     -10.431  10.012   6.265  0.00  0.00    +0.132 C 
ATOM     22  C   UNL     1      -8.371  11.302   7.222  0.00  0.00    +0.018 C 
ATOM     23  C   UNL     1      -9.643   8.687   6.323  0.00  0.00    +0.032 C 
ATOM     24  C   UNL     1      -8.680   8.403   2.837  0.00  0.00    +0.176 C 
ATOM     25  C   UNL     1      -9.705   7.777   5.098  0.00  0.00    +0.006 C 
ATOM     26  C   UNL     1      -8.438   7.925   4.270  0.00  0.00    +0.045 C 
ENDROOT
BRANCH  24  27
ATOM     27  C   UNL     1      -9.037   7.212   1.915  0.00  0.00    +0.041 C 
ATOM     28  C   UNL     1     -10.505   7.186   1.494  0.00  0.00    +0.007 C 
ENDBRANCH  24  27
BRANCH  10  29
ATOM     29  O   UNL     1     -11.090  17.542  -0.769  0.00  0.00    -0.345 OA
BRANCH  29  31
ATOM     30  O   UNL     1     -13.424  18.216  -0.674  0.00  0.00    -0.343 OA
ATOM     31  C   UNL     1     -12.312  17.808  -1.477  0.00  0.00    +0.282 C 
ATOM     32  C   UNL     1     -12.698  16.755  -2.542  0.00  0.00    +0.205 C 
ATOM     33  C   UNL     1     -13.363  15.542  -1.862  0.00  0.00    +0.183 C 
ATOM     34  C   UNL     1     -14.213  17.203  -0.050  0.00  0.00    +0.150 C 
ATOM     35  C   UNL     1     -14.510  15.930  -0.898  0.00  0.00    +0.178 C 
ATOM     36  C   UNL     1     -15.514  17.861   0.404  0.00  0.00    +0.041 C 
BRANCH  32  37
ATOM     37  O   UNL     1     -13.420  17.323  -3.659  0.00  0.00    -0.372 OA
ATOM     38  C   UNL     1     -14.616  18.047  -3.426  0.00  0.00    +0.194 C 
ENDBRANCH  32  37
BRANCH  33  39
ATOM     39  O   UNL     1     -13.638  14.429  -2.732  0.00  0.00    -0.374 OA
ATOM     40  C   UNL     1     -14.572  14.614  -3.778  0.00  0.00    +0.194 C 
ENDBRANCH  33  39
BRANCH  35  41
ATOM     41  O   UNL     1     -14.966  14.809  -0.108  0.00  0.00    -0.375 OA
ATOM     42  C   UNL     1     -14.210  14.457   1.042  0.00  0.00    +0.194 C 
ENDBRANCH  35  41
ENDBRANCH  29  31
ENDBRANCH  10  29
BRANCH  21  43
ATOM     43  O   UNL     1     -11.313  10.109   5.162  0.00  0.00    -0.347 OA
BRANCH  43  45
ATOM     44  O   UNL     1     -12.827  11.380   6.515  0.00  0.00    -0.347 OA
ATOM     45  C   UNL     1     -12.684  10.369   5.525  0.00  0.00    +0.251 C 
ATOM     46  C   UNL     1     -13.406   9.038   5.702  0.00  0.00    +0.063 C 
ATOM     47  C   UNL     1     -13.670   8.679   7.144  0.00  0.00    +0.026 C 
ATOM     48  C   UNL     1     -14.234   9.836   7.971  0.00  0.00    +0.085 C 
ATOM     49  C   UNL     1     -13.396  11.126   7.801  0.00  0.00    +0.135 C 
ATOM     50  C   UNL     1     -12.364  11.263   8.933  0.00  0.00    +0.039 C 
BRANCH  48  51
ATOM     51  N   UNL     1     -15.702  10.008   7.797  0.00  0.00    -0.303 NA
ATOM     52  C   UNL     1     -16.280  10.650   8.988  0.00  0.00    +0.105 C 
ATOM     53  C   UNL     1     -16.117  10.759   6.611  0.00  0.00    +0.105 C 
ENDBRANCH  48  51
ENDBRANCH  43  45
ENDBRANCH  21  43
TORSDOF 9
