
 OpenBabel12022515443D

117122  0  0  1  0  0  0  0  0999 V2000
    0.4953    6.5367   -5.3228 O   0  0  0  0  0  0  0  0  0  0  0  0
   -1.0650    7.8935   -6.2889 O   0  0  0  0  0  0  0  0  0  0  0  0
   -1.6683    0.6084   -0.5035 O   0  0  0  0  0  0  0  0  0  0  0  0
    0.4466    3.8162    2.3717 O   0  0  0  0  0  0  0  0  0  0  0  0
    1.8304    9.8431   -5.9876 O   0  0  0  0  0  0  0  0  0  0  0  0
   -4.3068    4.4079   -1.1455 O   0  0  0  0  0  0  0  0  0  0  0  0
    2.1395    4.3093    1.0351 O   0  0  0  0  0  0  0  0  0  0  0  0
    2.0626    9.3564   -8.7192 O   0  0  0  0  0  0  0  0  0  0  0  0
   -0.7301    9.9251   -8.5783 O   0  0  0  0  0  0  0  0  0  0  0  0
   -5.2505    6.3638   -1.8907 O   0  0  0  0  0  0  0  0  0  0  0  0
   -4.2929    8.4581   -3.8913 N   0  0  0  0  0  0  0  0  0  0  0  0
    0.8177    4.1697   -4.1087 C   0  0  1  0  0  0  0  0  0  0  0  0
    0.9340    2.7614   -3.5393 C   0  0  1  0  0  0  0  0  0  0  0  0
    2.1340    4.9936   -4.0548 C   0  0  2  0  0  0  0  0  0  0  0  0
    1.7040    2.7147   -2.1824 C   0  0  2  0  0  0  0  0  0  0  0  0
    0.3919    4.2389   -5.5997 C   0  0  0  0  0  0  0  0  0  0  0  0
    2.5117    5.2139   -5.5173 C   0  0  0  0  0  0  0  0  0  0  0  0
    1.1152    5.5050   -6.0767 C   0  0  2  0  0  0  0  0  0  0  0  0
    0.5780    2.9004   -1.1187 C   0  0  1  0  0  0  0  0  0  0  0  0
    3.1741    4.5947   -3.0684 C   0  0  0  0  0  0  0  0  0  0  0  0
   -0.4153    2.2007   -3.1641 C   0  0  0  0  0  0  0  0  0  0  0  0
    2.8951    3.6471   -2.1370 C   0  0  0  0  0  0  0  0  0  0  0  0
   -0.5967    2.2193   -1.8355 C   0  0  0  0  0  0  0  0  0  0  0  0
    0.8689    2.4360    0.3372 C   0  0  0  0  0  0  0  0  0  0  0  0
    4.3886    5.4763   -3.0599 C   0  0  0  0  0  0  0  0  0  0  0  0
   -1.8096    1.6284   -1.1737 C   0  0  0  0  0  0  0  0  0  0  0  0
    0.2421    7.8556   -5.7413 C   0  0  2  0  0  0  0  0  0  0  0  0
   -3.1714    2.3448   -1.3020 C   0  0  2  0  0  0  0  0  0  0  0  0
    1.1555    3.6135    1.2483 C   0  0  0  0  0  0  0  0  0  0  0  0
    1.3805    8.5686   -6.4977 C   0  0  1  0  0  0  0  0  0  0  0  0
   -3.3322    3.6445   -0.4364 C   0  0  1  0  0  0  0  0  0  0  0  0
    1.1820    8.4736   -8.0135 C   0  0  1  0  0  0  0  0  0  0  0  0
   -4.3492    1.3950   -1.0050 C   0  0  0  0  0  0  0  0  0  0  0  0
   -1.2379    7.6583   -7.6774 C   0  0  1  0  0  0  0  0  0  0  0  0
   -0.2916    8.5504   -8.4997 C   0  0  1  0  0  0  0  0  0  0  0  0
   -1.9701    4.2708   -0.1348 C   0  0  0  0  0  0  0  0  0  0  0  0
   -0.9803    3.8562    2.7703 C   0  0  1  0  0  0  0  0  0  0  0  0
   -1.6658    5.4285    0.7860 C   0  0  0  0  0  0  0  0  0  0  0  0
   -1.7644    5.0901    2.2578 C   0  0  0  0  0  0  0  0  0  0  0  0
   -1.3388    6.1839   -8.0562 C   0  0  0  0  0  0  0  0  0  0  0  0
   -4.0263    5.7404   -1.5254 C   0  0  2  0  0  0  0  0  0  0  0  0
   -1.7524    2.5336    2.7008 C   0  0  0  0  0  0  0  0  0  0  0  0
   -2.8756    5.8418   -2.5518 C   0  0  0  0  0  0  0  0  0  0  0  0
    1.1212   11.0370   -6.2589 C   0  0  0  0  0  0  0  0  0  0  0  0
   -3.2046    6.2223   -3.9786 C   0  0  0  0  0  0  0  0  0  0  0  0
   -4.5030    6.9992   -4.1170 C   0  0  1  0  0  0  0  0  0  0  0  0
   -5.5918    6.2884   -3.2666 C   0  0  1  0  0  0  0  0  0  0  0  0
   -1.2333    1.5274    3.7144 C   0  0  0  0  0  0  0  0  0  0  0  0
   -1.6923   10.3894   -7.6375 C   0  0  0  0  0  0  0  0  0  0  0  0
   -5.8770    4.8359   -3.6774 C   0  0  0  0  0  0  0  0  0  0  0  0
   -5.5066    9.2177   -4.1727 C   0  0  0  0  0  0  0  0  0  0  0  0
   -3.7474    8.8765   -2.6010 C   0  0  0  0  0  0  0  0  0  0  0  0
    0.0721    4.7348   -3.5288 H   0  0  0  0  0  0  0  0  0  0  0  0
    1.4326    2.0959   -4.2550 H   0  0  0  0  0  0  0  0  0  0  0  0
    1.8549    5.9842   -3.6670 H   0  0  0  0  0  0  0  0  0  0  0  0
    2.1062    1.6983   -2.0711 H   0  0  0  0  0  0  0  0  0  0  0  0
   -0.6961    4.3229   -5.6843 H   0  0  0  0  0  0  0  0  0  0  0  0
    0.7192    3.3595   -6.1660 H   0  0  0  0  0  0  0  0  0  0  0  0
    2.9497    4.3265   -5.9755 H   0  0  0  0  0  0  0  0  0  0  0  0
    3.2025    6.0504   -5.6572 H   0  0  0  0  0  0  0  0  0  0  0  0
    1.1384    5.6523   -7.1498 H   0  0  0  0  0  0  0  0  0  0  0  0
    0.3959    3.9791   -1.0918 H   0  0  0  0  0  0  0  0  0  0  0  0
   -1.1214    1.8167   -3.8888 H   0  0  0  0  0  0  0  0  0  0  0  0
    3.5859    3.5265   -1.2999 H   0  0  0  0  0  0  0  0  0  0  0  0
    0.0755    1.8325    0.7559 H   0  0  0  0  0  0  0  0  0  0  0  0
    1.7565    1.7923    0.3455 H   0  0  0  0  0  0  0  0  0  0  0  0
    4.1041    6.5319   -3.1259 H   0  0  0  0  0  0  0  0  0  0  0  0
    4.9921    5.3519   -2.1509 H   0  0  0  0  0  0  0  0  0  0  0  0
    5.0209    5.2490   -3.9257 H   0  0  0  0  0  0  0  0  0  0  0  0
    0.1385    8.3943   -4.7912 H   0  0  0  0  0  0  0  0  0  0  0  0
   -3.2725    2.6012   -2.3659 H   0  0  0  0  0  0  0  0  0  0  0  0
    2.2864    7.9889   -6.2849 H   0  0  0  0  0  0  0  0  0  0  0  0
   -3.7958    3.3855    0.5232 H   0  0  0  0  0  0  0  0  0  0  0  0
    1.5324    7.4726   -8.2899 H   0  0  0  0  0  0  0  0  0  0  0  0
   -5.2824    1.7961   -1.4191 H   0  0  0  0  0  0  0  0  0  0  0  0
   -4.1954    0.3999   -1.4358 H   0  0  0  0  0  0  0  0  0  0  0  0
   -4.5005    1.2647    0.0731 H   0  0  0  0  0  0  0  0  0  0  0  0
   -2.2630    7.9881   -7.8657 H   0  0  0  0  0  0  0  0  0  0  0  0
   -0.2953    8.2058   -9.5400 H   0  0  0  0  0  0  0  0  0  0  0  0
   -1.4905    4.5297   -1.0666 H   0  0  0  0  0  0  0  0  0  0  0  0
   -1.3995    3.4645    0.2915 H   0  0  0  0  0  0  0  0  0  0  0  0
   -0.9051    4.0642    3.8469 H   0  0  0  0  0  0  0  0  0  0  0  0
   -2.2428    6.3251    0.5651 H   0  0  0  0  0  0  0  0  0  0  0  0
   -0.6249    5.7229    0.5873 H   0  0  0  0  0  0  0  0  0  0  0  0
   -2.8221    5.0072    2.5350 H   0  0  0  0  0  0  0  0  0  0  0  0
   -1.3802    5.9711    2.7899 H   0  0  0  0  0  0  0  0  0  0  0  0
   -1.8061    5.6058   -7.2516 H   0  0  0  0  0  0  0  0  0  0  0  0
   -1.9705    6.0736   -8.9456 H   0  0  0  0  0  0  0  0  0  0  0  0
   -0.3910    5.7233   -8.3222 H   0  0  0  0  0  0  0  0  0  0  0  0
   -3.7570    6.2746   -0.6181 H   0  0  0  0  0  0  0  0  0  0  0  0
    2.5891    9.8373   -8.0499 H   0  0  0  0  0  0  0  0  0  0  0  0
   -2.8148    2.7119    2.9091 H   0  0  0  0  0  0  0  0  0  0  0  0
   -1.7084    2.0697    1.7200 H   0  0  0  0  0  0  0  0  0  0  0  0
   -2.1325    6.5447   -2.1564 H   0  0  0  0  0  0  0  0  0  0  0  0
   -2.3494    4.8925   -2.6559 H   0  0  0  0  0  0  0  0  0  0  0  0
    0.9060   11.1621   -7.3188 H   0  0  0  0  0  0  0  0  0  0  0  0
    0.2247   11.1189   -5.6435 H   0  0  0  0  0  0  0  0  0  0  0  0
    1.7692   11.8772   -5.9845 H   0  0  0  0  0  0  0  0  0  0  0  0
   -2.3581    6.7549   -4.4216 H   0  0  0  0  0  0  0  0  0  0  0  0
   -3.2802    5.2966   -4.5662 H   0  0  0  0  0  0  0  0  0  0  0  0
   -4.7934    6.9010   -5.1718 H   0  0  0  0  0  0  0  0  0  0  0  0
   -6.5387    6.8241   -3.3786 H   0  0  0  0  0  0  0  0  0  0  0  0
   -1.4606    1.8611    4.7324 H   0  0  0  0  0  0  0  0  0  0  0  0
   -1.7184    0.5584    3.5631 H   0  0  0  0  0  0  0  0  0  0  0  0
   -0.1523    1.3929    3.6243 H   0  0  0  0  0  0  0  0  0  0  0  0
   -2.6797    9.9598   -7.8216 H   0  0  0  0  0  0  0  0  0  0  0  0
   -1.3920   10.1931   -6.6080 H   0  0  0  0  0  0  0  0  0  0  0  0
   -1.7781   11.4710   -7.7544 H   0  0  0  0  0  0  0  0  0  0  0  0
   -6.6114    4.3903   -2.9949 H   0  0  0  0  0  0  0  0  0  0  0  0
   -6.2672    4.7827   -4.6969 H   0  0  0  0  0  0  0  0  0  0  0  0
   -4.9940    4.1915   -3.6250 H   0  0  0  0  0  0  0  0  0  0  0  0
   -6.2870    9.0459   -3.4241 H   0  0  0  0  0  0  0  0  0  0  0  0
   -5.2846   10.2902   -4.1907 H   0  0  0  0  0  0  0  0  0  0  0  0
   -5.9004    8.9632   -5.1616 H   0  0  0  0  0  0  0  0  0  0  0  0
   -4.3673    8.5894   -1.7472 H   0  0  0  0  0  0  0  0  0  0  0  0
   -2.7290    8.5126   -2.4500 H   0  0  0  0  0  0  0  0  0  0  0  0
   -3.6509    9.9685   -2.5626 H   0  0  0  0  0  0  0  0  0  0  0  0
  1 18  1  0  0  0  0
  1 27  1  0  0  0  0
  2 27  1  0  0  0  0
  2 34  1  0  0  0  0
  3 26  2  0  0  0  0
  4 29  1  0  0  0  0
  4 37  1  0  0  0  0
  5 30  1  0  0  0  0
  5 44  1  0  0  0  0
  6 31  1  0  0  0  0
  6 41  1  0  0  0  0
  7 29  2  0  0  0  0
  8 32  1  0  0  0  0
  8 91  1  0  0  0  0
  9 35  1  0  0  0  0
  9 49  1  0  0  0  0
 10 41  1  0  0  0  0
 10 47  1  0  0  0  0
 11 46  1  0  0  0  0
 11 51  1  0  0  0  0
 11 52  1  0  0  0  0
 12 13  1  1  0  0  0
 12 16  1  0  0  0  0
 12 53  1  0  0  0  0
 13 15  1  1  0  0  0
 13 21  1  0  0  0  0
 13 54  1  0  0  0  0
 14 12  1  1  0  0  0
 14 17  1  0  0  0  0
 14 20  1  0  0  0  0
 14 55  1  0  0  0  0
 15 19  1  1  0  0  0
 15 22  1  0  0  0  0
 15 56  1  0  0  0  0
 16 18  1  0  0  0  0
 16 57  1  0  0  0  0
 16 58  1  0  0  0  0
 17 18  1  0  0  0  0
 17 59  1  0  0  0  0
 17 60  1  0  0  0  0
 18 61  1  6  0  0  0
 19 23  1  0  0  0  0
 19 24  1  0  0  0  0
 19 62  1  1  0  0  0
 20 22  2  0  0  0  0
 20 25  1  0  0  0  0
 21 23  2  0  0  0  0
 21 63  1  0  0  0  0
 22 64  1  0  0  0  0
 23 26  1  0  0  0  0
 24 29  1  0  0  0  0
 24 65  1  0  0  0  0
 24 66  1  0  0  0  0
 25 67  1  0  0  0  0
 25 68  1  0  0  0  0
 25 69  1  0  0  0  0
 26 28  1  0  0  0  0
 27 30  1  6  0  0  0
 27 70  1  0  0  0  0
 28 31  1  1  0  0  0
 28 33  1  0  0  0  0
 28 71  1  0  0  0  0
 30 32  1  6  0  0  0
 30 72  1  0  0  0  0
 31 36  1  0  0  0  0
 31 73  1  1  0  0  0
 32 35  1  6  0  0  0
 32 74  1  0  0  0  0
 33 75  1  0  0  0  0
 33 76  1  0  0  0  0
 33 77  1  0  0  0  0
 34 35  1  6  0  0  0
 34 40  1  0  0  0  0
 34 78  1  0  0  0  0
 35 79  1  6  0  0  0
 36 38  1  0  0  0  0
 36 80  1  0  0  0  0
 36 81  1  0  0  0  0
 37 39  1  0  0  0  0
 37 42  1  0  0  0  0
 37 82  1  1  0  0  0
 38 39  1  0  0  0  0
 38 83  1  0  0  0  0
 38 84  1  0  0  0  0
 39 85  1  0  0  0  0
 39 86  1  0  0  0  0
 40 87  1  0  0  0  0
 40 88  1  0  0  0  0
 40 89  1  0  0  0  0
 41 43  1  0  0  0  0
 41 90  1  1  0  0  0
 42 48  1  0  0  0  0
 42 92  1  0  0  0  0
 42 93  1  0  0  0  0
 43 45  1  0  0  0  0
 43 94  1  0  0  0  0
 43 95  1  0  0  0  0
 44 96  1  0  0  0  0
 44 97  1  0  0  0  0
 44 98  1  0  0  0  0
 45 46  1  0  0  0  0
 45 99  1  0  0  0  0
 45100  1  0  0  0  0
 46 47  1  1  0  0  0
 46101  1  0  0  0  0
 47 50  1  0  0  0  0
 47102  1  6  0  0  0
 48103  1  0  0  0  0
 48104  1  0  0  0  0
 48105  1  0  0  0  0
 49106  1  0  0  0  0
 49107  1  0  0  0  0
 49108  1  0  0  0  0
 50109  1  0  0  0  0
 50110  1  0  0  0  0
 50111  1  0  0  0  0
 51112  1  0  0  0  0
 51113  1  0  0  0  0
 51114  1  0  0  0  0
 52115  1  0  0  0  0
 52116  1  0  0  0  0
 52117  1  0  0  0  0
M  END
>  <MOL Chiral Flag>
1

>  <PUBCHEM_COMPOUND_CID>
78135090

>  <PUBCHEM_COMPOUND_CANONICALIZED>
1

>  <PUBCHEM_CACTVS_COMPLEXITY>
1320

>  <PUBCHEM_CACTVS_HBOND_ACCEPTOR>
11

>  <PUBCHEM_CACTVS_HBOND_DONOR>
1

>  <PUBCHEM_CACTVS_ROTATABLE_BOND>
8

>  <PUBCHEM_CACTVS_SUBSKEYS>
AAADcfB+PAAAAAAAAAAAAAAAAAAAAYIAAAAkSIAAAAAAAEAAAAAAHgAACAAADTzxgAcCCAMABgCIAqDSCAAAAAAgAAAACAEIAEgTEBYAgQAnQAAFoAAfAYPo7vyugAAAAAAAAAAAAAAAAAAAAIAACAAAAA==

>  <PUBCHEM_IUPAC_OPENEYE_NAME>
15-[5-(dimethylamino)-6-methyl-tetrahydropyran-2-yl]oxy-19-ethyl-7-(4-hydroxy-3,5-dimethoxy-6-methyl-tetrahydropyran-2-yl)oxy-4,14-dimethyl-20-oxatetracyclo[10.10.0.02,10.05,9]docosa-3,11-diene-13,21-dione

>  <PUBCHEM_IUPAC_CAS_NAME>
15-[[5-(dimethylamino)-6-methyl-2-oxanyl]oxy]-19-ethyl-7-[(4-hydroxy-3,5-dimethoxy-6-methyl-2-oxanyl)oxy]-4,14-dimethyl-20-oxatetracyclo[10.10.0.02,10.05,9]docosa-3,11-diene-13,21-dione

>  <PUBCHEM_IUPAC_NAME_MARKUP>
15-[5-(dimethylamino)-6-methyloxan-2-yl]oxy-19-ethyl-7-(4-hydroxy-3,5-dimethoxy-6-methyloxan-2-yl)oxy-4,14-dimethyl-20-oxatetracyclo[10.10.0.0<SUP>2,10</SUP>.0<SUP>5,9</SUP>]docosa-3,11-diene-13,21-dione

>  <PUBCHEM_IUPAC_NAME>
15-[5-(dimethylamino)-6-methyloxan-2-yl]oxy-19-ethyl-7-(4-hydroxy-3,5-dimethoxy-6-methyloxan-2-yl)oxy-4,14-dimethyl-20-oxatetracyclo[10.10.0.02,10.05,9]docosa-3,11-diene-13,21-dione

>  <PUBCHEM_IUPAC_SYSTEMATIC_NAME>
7-(3,5-dimethoxy-6-methyl-4-oxidanyl-oxan-2-yl)oxy-15-[5-(dimethylamino)-6-methyl-oxan-2-yl]oxy-19-ethyl-4,14-dimethyl-20-oxatetracyclo[10.10.0.02,10.05,9]docosa-3,11-diene-13,21-dione

>  <PUBCHEM_IUPAC_TRADITIONAL_NAME>
15-[5-(dimethylamino)-6-methyl-tetrahydropyran-2-yl]oxy-19-ethyl-7-(4-hydroxy-3,5-dimethoxy-6-methyl-tetrahydropyran-2-yl)oxy-4,14-dimethyl-20-oxatetracyclo[10.10.0.02,10.05,9]docosa-3,11-diene-13,21-quinone

>  <PUBCHEM_IUPAC_INCHI>
InChI=1S/C41H65NO10/c1-10-25-12-11-13-34(52-36-15-14-33(42(6)7)23(4)48-36)22(3)37(44)32-19-30-28(31(32)20-35(43)50-25)16-21(2)27-17-26(18-29(27)30)51-41-40(47-9)38(45)39(46-8)24(5)49-41/h16,19,22-31,33-34,36,38-41,45H,10-15,17-18,20H2,1-9H3

>  <PUBCHEM_IUPAC_INCHIKEY>
OGERNURWPFGCDC-UHFFFAOYSA-N

>  <PUBCHEM_XLOGP3_AA>
4.3

>  <PUBCHEM_EXACT_MASS>
731.46084727

>  <PUBCHEM_MOLECULAR_FORMULA>
C41H65NO10

>  <PUBCHEM_MOLECULAR_WEIGHT>
732.0

>  <PUBCHEM_SMILES>
CCC1CCCC(C(C(=O)C2=CC3C4CC(CC4C(=CC3C2CC(=O)O1)C)OC5C(C(C(C(O5)C)OC)O)OC)C)OC6CCC(C(O6)C)N(C)C

>  <PUBCHEM_CONNECTIVITY_SMILES>
CCC1CCCC(C(C(=O)C2=CC3C4CC(CC4C(=CC3C2CC(=O)O1)C)OC5C(C(C(C(O5)C)OC)O)OC)C)OC6CCC(C(O6)C)N(C)C

>  <PUBCHEM_CACTVS_TPSA>
122

>  <PUBCHEM_MONOISOTOPIC_WEIGHT>
731.46084727

>  <PUBCHEM_TOTAL_CHARGE>
0

>  <PUBCHEM_HEAVY_ATOM_COUNT>
52

>  <PUBCHEM_ATOM_DEF_STEREO_COUNT>
0

>  <PUBCHEM_ATOM_UDEF_STEREO_COUNT>
17

>  <PUBCHEM_BOND_DEF_STEREO_COUNT>
0

>  <PUBCHEM_BOND_UDEF_STEREO_COUNT>
0

>  <PUBCHEM_ISOTOPIC_ATOM_COUNT>
0

>  <PUBCHEM_COMPONENT_COUNT>
1

>  <PUBCHEM_CACTVS_TAUTO_COUNT>
-1

>  <PUBCHEM_COORDINATE_TYPE>
1
5
255

>  <PUBCHEM_BONDANNOTATIONS>
18  1  3
27  1  3
46  11  3
12  16  3
13  21  3
14  17  3
15  22  3
19  24  3
28  33  3
34  40  3
37  42  3
47  50  3
30  5  3
31  6  3
41  6  3
32  8  3
35  9  3

$$$$
