
 OpenBabel12022515423D

120125  0  0  1  0  0  0  0  0999 V2000
  -11.0898   17.5419   -0.7695 O   0  0  0  0  0  0  0  0  0  0  0  0
  -13.4240   18.2156   -0.6743 O   0  0  0  0  0  0  0  0  0  0  0  0
  -10.1768   13.6248    5.9327 O   0  0  0  0  0  0  0  0  0  0  0  0
   -7.4103    8.9936    2.4595 O   0  0  0  0  0  0  0  0  0  0  0  0
  -13.4200   17.3230   -3.6592 O   0  0  0  0  0  0  0  0  0  0  0  0
  -11.3126   10.1092    5.1616 O   0  0  0  0  0  0  0  0  0  0  0  0
   -7.8094   10.5768    0.8954 O   0  0  0  0  0  0  0  0  0  0  0  0
  -13.6380   14.4291   -2.7320 O   0  0  0  0  0  0  0  0  0  0  0  0
  -14.9656   14.8090   -0.1082 O   0  0  0  0  0  0  0  0  0  0  0  0
  -12.8274   11.3795    6.5152 O   0  0  0  0  0  0  0  0  0  0  0  0
  -15.7021   10.0077    7.7970 N   0  0  0  0  0  0  0  0  0  0  0  0
   -9.5901   15.1874    1.4270 C   0  0  2  0  0  0  0  0  0  0  0  0
   -9.4652   13.7909    1.9976 C   0  0  1  0  0  0  0  0  0  0  0  0
  -10.2687   16.0564    2.4547 C   0  0  2  0  0  0  0  0  0  0  0  0
   -8.1580   13.8522    2.8485 C   0  0  2  0  0  0  0  0  0  0  0  0
  -10.2678   15.3887    0.0910 C   0  0  0  0  0  0  0  0  0  0  0  0
  -10.5818   17.2913    1.6120 C   0  0  0  0  0  0  0  0  0  0  0  0
  -11.1065   16.6438    0.3138 C   0  0  1  0  0  0  0  0  0  0  0  0
   -8.2543   12.3680    3.3564 C   0  0  2  0  0  0  0  0  0  0  0  0
   -9.3676   16.0434    3.6848 C   0  0  0  0  0  0  0  0  0  0  0  0
  -10.3694   13.1453    3.1411 C   0  0  0  0  0  0  0  0  0  0  0  0
   -8.3806   15.0981    3.8434 C   0  0  0  0  0  0  0  0  0  0  0  0
   -9.5987   12.4144    4.0161 C   0  0  0  0  0  0  0  0  0  0  0  0
   -7.1074   11.3394    3.1463 C   0  0  0  0  0  0  0  0  0  0  0  0
   -9.8481   16.9487    4.7892 C   0  0  0  0  0  0  0  0  0  0  0  0
   -9.8644   12.5051    5.4891 C   0  0  0  0  0  0  0  0  0  0  0  0
  -12.3117   17.8078   -1.4768 C   0  0  2  0  0  0  0  0  0  0  0  0
   -9.7125   11.3559    6.5026 C   0  0  1  0  0  0  0  0  0  0  0  0
   -7.4743   10.2829    2.0360 C   0  0  0  0  0  0  0  0  0  0  0  0
  -12.6976   16.7547   -2.5420 C   0  0  1  0  0  0  0  0  0  0  0  0
  -10.4308   10.0117    6.2649 C   0  0  2  0  0  0  0  0  0  0  0  0
  -13.3634   15.5420   -1.8620 C   0  0  1  0  0  0  0  0  0  0  0  0
  -14.2130   17.2032   -0.0501 C   0  0  2  0  0  0  0  0  0  0  0  0
  -14.5097   15.9304   -0.8979 C   0  0  2  0  0  0  0  0  0  0  0  0
   -8.3707   11.3021    7.2222 C   0  0  0  0  0  0  0  0  0  0  0  0
   -9.6429    8.6869    6.3233 C   0  0  0  0  0  0  0  0  0  0  0  0
   -8.6804    8.4029    2.8366 C   0  0  2  0  0  0  0  0  0  0  0  0
   -9.7053    7.7773    5.0975 C   0  0  0  0  0  0  0  0  0  0  0  0
   -8.4376    7.9253    4.2703 C   0  0  0  0  0  0  0  0  0  0  0  0
  -15.5140   17.8610    0.4036 C   0  0  0  0  0  0  0  0  0  0  0  0
  -12.6835   10.3686    5.5249 C   0  0  2  0  0  0  0  0  0  0  0  0
   -9.0366    7.2115    1.9151 C   0  0  0  0  0  0  0  0  0  0  0  0
  -13.4060    9.0384    5.7019 C   0  0  0  0  0  0  0  0  0  0  0  0
  -14.6163   18.0465   -3.4263 C   0  0  0  0  0  0  0  0  0  0  0  0
  -13.6696    8.6787    7.1435 C   0  0  0  0  0  0  0  0  0  0  0  0
  -14.2344    9.8357    7.9705 C   0  0  1  0  0  0  0  0  0  0  0  0
  -13.3958   11.1261    7.8012 C   0  0  1  0  0  0  0  0  0  0  0  0
  -14.5719   14.6145   -3.7777 C   0  0  0  0  0  0  0  0  0  0  0  0
  -10.5045    7.1859    1.4937 C   0  0  0  0  0  0  0  0  0  0  0  0
  -14.2105   14.4567    1.0420 C   0  0  0  0  0  0  0  0  0  0  0  0
  -12.3640   11.2629    8.9327 C   0  0  0  0  0  0  0  0  0  0  0  0
  -16.2799   10.6504    8.9877 C   0  0  0  0  0  0  0  0  0  0  0  0
  -16.1169   10.7591    6.6106 C   0  0  0  0  0  0  0  0  0  0  0  0
   -8.5753   15.5867    1.2400 H   0  0  0  0  0  0  0  0  0  0  0  0
   -9.3814   13.0913    1.1492 H   0  0  0  0  0  0  0  0  0  0  0  0
  -11.2437   15.6386    2.7476 H   0  0  0  0  0  0  0  0  0  0  0  0
   -7.2514   14.0250    2.2567 H   0  0  0  0  0  0  0  0  0  0  0  0
   -9.5340   15.5200   -0.7138 H   0  0  0  0  0  0  0  0  0  0  0  0
  -10.8750   14.5187   -0.1722 H   0  0  0  0  0  0  0  0  0  0  0  0
   -9.7087   17.9254    1.4305 H   0  0  0  0  0  0  0  0  0  0  0  0
  -11.3621   17.9152    2.0625 H   0  0  0  0  0  0  0  0  0  0  0  0
  -12.0911   16.2624    0.5114 H   0  0  0  0  0  0  0  0  0  0  0  0
   -8.7101   11.8859    2.4880 H   0  0  0  0  0  0  0  0  0  0  0  0
  -11.3315   13.5573    3.4155 H   0  0  0  0  0  0  0  0  0  0  0  0
   -7.8124   15.0865    4.7691 H   0  0  0  0  0  0  0  0  0  0  0  0
   -6.8222   10.8368    4.0706 H   0  0  0  0  0  0  0  0  0  0  0  0
   -6.2168   11.8470    2.7519 H   0  0  0  0  0  0  0  0  0  0  0  0
  -10.5326   16.3968    5.4469 H   0  0  0  0  0  0  0  0  0  0  0  0
   -9.0296   17.3538    5.3857 H   0  0  0  0  0  0  0  0  0  0  0  0
  -10.4233   17.7945    4.3914 H   0  0  0  0  0  0  0  0  0  0  0  0
  -12.0605   18.7132   -2.0433 H   0  0  0  0  0  0  0  0  0  0  0  0
  -10.3388   11.7797    7.3015 H   0  0  0  0  0  0  0  0  0  0  0  0
  -11.7730   16.3871   -3.0059 H   0  0  0  0  0  0  0  0  0  0  0  0
  -11.0447    9.8767    7.1525 H   0  0  0  0  0  0  0  0  0  0  0  0
  -12.5926   15.1007   -1.2358 H   0  0  0  0  0  0  0  0  0  0  0  0
  -13.7296   16.9615    0.8951 H   0  0  0  0  0  0  0  0  0  0  0  0
  -15.3810   16.1429   -1.5171 H   0  0  0  0  0  0  0  0  0  0  0  0
   -8.4696   10.7287    8.1546 H   0  0  0  0  0  0  0  0  0  0  0  0
   -7.5873   10.8458    6.6146 H   0  0  0  0  0  0  0  0  0  0  0  0
   -8.0366   12.3062    7.5070 H   0  0  0  0  0  0  0  0  0  0  0  0
  -10.0876    8.1012    7.1439 H   0  0  0  0  0  0  0  0  0  0  0  0
   -8.6140    8.8300    6.6646 H   0  0  0  0  0  0  0  0  0  0  0  0
   -9.4690    9.1661    2.8098 H   0  0  0  0  0  0  0  0  0  0  0  0
   -9.7628    6.7381    5.4499 H   0  0  0  0  0  0  0  0  0  0  0  0
  -10.6125    7.9316    4.5096 H   0  0  0  0  0  0  0  0  0  0  0  0
   -7.9051    6.9637    4.2617 H   0  0  0  0  0  0  0  0  0  0  0  0
   -7.7368    8.6122    4.7578 H   0  0  0  0  0  0  0  0  0  0  0  0
  -16.1065   17.1748    1.0159 H   0  0  0  0  0  0  0  0  0  0  0  0
  -15.2968   18.7569    0.9959 H   0  0  0  0  0  0  0  0  0  0  0  0
  -16.1110   18.1825   -0.4547 H   0  0  0  0  0  0  0  0  0  0  0  0
  -13.0924   10.8173    4.6124 H   0  0  0  0  0  0  0  0  0  0  0  0
   -8.4106    7.2122    1.0165 H   0  0  0  0  0  0  0  0  0  0  0  0
   -8.8380    6.2577    2.4233 H   0  0  0  0  0  0  0  0  0  0  0  0
  -14.3533    9.0685    5.1586 H   0  0  0  0  0  0  0  0  0  0  0  0
  -12.8467    8.2273    5.2199 H   0  0  0  0  0  0  0  0  0  0  0  0
  -15.4232   17.3879   -3.1080 H   0  0  0  0  0  0  0  0  0  0  0  0
  -14.4821   18.8687   -2.7228 H   0  0  0  0  0  0  0  0  0  0  0  0
  -14.9330   18.4847   -4.3777 H   0  0  0  0  0  0  0  0  0  0  0  0
  -14.3356    7.8082    7.1910 H   0  0  0  0  0  0  0  0  0  0  0  0
  -12.7269    8.3475    7.5984 H   0  0  0  0  0  0  0  0  0  0  0  0
  -14.1116    9.4890    9.0071 H   0  0  0  0  0  0  0  0  0  0  0  0
  -14.0406   11.9938    7.9757 H   0  0  0  0  0  0  0  0  0  0  0  0
  -15.5343   14.9649   -3.4014 H   0  0  0  0  0  0  0  0  0  0  0  0
  -14.1835   15.2812   -4.5497 H   0  0  0  0  0  0  0  0  0  0  0  0
  -14.7316   13.6433   -4.2564 H   0  0  0  0  0  0  0  0  0  0  0  0
  -10.7159    7.9844    0.7766 H   0  0  0  0  0  0  0  0  0  0  0  0
  -10.7437    6.2319    1.0084 H   0  0  0  0  0  0  0  0  0  0  0  0
  -11.1814    7.2980    2.3457 H   0  0  0  0  0  0  0  0  0  0  0  0
  -13.1428   14.3746    0.8334 H   0  0  0  0  0  0  0  0  0  0  0  0
  -14.3892   15.1742    1.8486 H   0  0  0  0  0  0  0  0  0  0  0  0
  -14.5571   13.4825    1.3972 H   0  0  0  0  0  0  0  0  0  0  0  0
  -11.8113   12.2031    8.8406 H   0  0  0  0  0  0  0  0  0  0  0  0
  -12.8589   11.2652    9.9101 H   0  0  0  0  0  0  0  0  0  0  0  0
  -11.6382   10.4473    8.9525 H   0  0  0  0  0  0  0  0  0  0  0  0
  -15.9497   11.6888    9.1062 H   0  0  0  0  0  0  0  0  0  0  0  0
  -17.3733   10.6445    8.9318 H   0  0  0  0  0  0  0  0  0  0  0  0
  -16.0152   10.1028    9.8995 H   0  0  0  0  0  0  0  0  0  0  0  0
  -15.6903   11.7656    6.5595 H   0  0  0  0  0  0  0  0  0  0  0  0
  -15.8747   10.2337    5.6883 H   0  0  0  0  0  0  0  0  0  0  0  0
  -17.2073   10.8678    6.5959 H   0  0  0  0  0  0  0  0  0  0  0  0
  2 27  1  0  0  0  0
  2 33  1  0  0  0  0
  3 26  2  0  0  0  0
  4 29  1  0  0  0  0
  4 37  1  0  0  0  0
  5 44  1  0  0  0  0
  7 29  2  0  0  0  0
  8 48  1  0  0  0  0
  9 50  1  0  0  0  0
 10 41  1  0  0  0  0
 10 47  1  0  0  0  0
 11 52  1  0  0  0  0
 11 53  1  0  0  0  0
 12 13  1  1  0  0  0
 12 16  1  0  0  0  0
 12 54  1  0  0  0  0
 13 15  1  1  0  0  0
 13 21  1  0  0  0  0
 13 55  1  0  0  0  0
 14 12  1  6  0  0  0
 14 17  1  0  0  0  0
 14 20  1  0  0  0  0
 14 56  1  0  0  0  0
 15 19  1  1  0  0  0
 15 22  1  0  0  0  0
 15 57  1  0  0  0  0
 16 18  1  0  0  0  0
 16 58  1  0  0  0  0
 16 59  1  0  0  0  0
 17 18  1  0  0  0  0
 17 60  1  0  0  0  0
 17 61  1  0  0  0  0
 18  1  1  0  0  0  0
 18 62  1  1  0  0  0
 19 23  1  0  0  0  0
 19 24  1  0  0  0  0
 19 63  1  6  0  0  0
 20 22  2  0  0  0  0
 20 25  1  0  0  0  0
 21 23  2  0  0  0  0
 21 64  1  0  0  0  0
 22 65  1  0  0  0  0
 23 26  1  0  0  0  0
 24 29  1  0  0  0  0
 24 66  1  0  0  0  0
 24 67  1  0  0  0  0
 25 68  1  0  0  0  0
 25 69  1  0  0  0  0
 25 70  1  0  0  0  0
 26 28  1  0  0  0  0
 27  1  1  0  0  0  0
 27 30  1  6  0  0  0
 27 71  1  0  0  0  0
 28 31  1  6  0  0  0
 28 35  1  0  0  0  0
 28 72  1  0  0  0  0
 30  5  1  0  0  0  0
 30 32  1  1  0  0  0
 30 73  1  0  0  0  0
 31 36  1  0  0  0  0
 31 74  1  1  0  0  0
 31  6  1  0  0  0  0
 32  8  1  0  0  0  0
 32 34  1  1  0  0  0
 32 75  1  0  0  0  0
 33 34  1  6  0  0  0
 33 76  1  0  0  0  0
 33 40  1  0  0  0  0
 34 77  1  6  0  0  0
 34  9  1  0  0  0  0
 35 78  1  0  0  0  0
 35 79  1  0  0  0  0
 35 80  1  0  0  0  0
 36 38  1  0  0  0  0
 36 81  1  0  0  0  0
 36 82  1  0  0  0  0
 37 39  1  0  0  0  0
 37 42  1  0  0  0  0
 37 83  1  6  0  0  0
 38 39  1  0  0  0  0
 38 84  1  0  0  0  0
 38 85  1  0  0  0  0
 39 86  1  0  0  0  0
 39 87  1  0  0  0  0
 40 88  1  0  0  0  0
 40 89  1  0  0  0  0
 40 90  1  0  0  0  0
 41  6  1  0  0  0  0
 41 43  1  0  0  0  0
 41 91  1  6  0  0  0
 42 49  1  0  0  0  0
 42 92  1  0  0  0  0
 42 93  1  0  0  0  0
 43 45  1  0  0  0  0
 43 94  1  0  0  0  0
 43 95  1  0  0  0  0
 44 96  1  0  0  0  0
 44 97  1  0  0  0  0
 44 98  1  0  0  0  0
 45 46  1  0  0  0  0
 45 99  1  0  0  0  0
 45100  1  0  0  0  0
 46 11  1  0  0  0  0
 46 47  1  6  0  0  0
 46101  1  0  0  0  0
 47 51  1  0  0  0  0
 47102  1  1  0  0  0
 48103  1  0  0  0  0
 48104  1  0  0  0  0
 48105  1  0  0  0  0
 49106  1  0  0  0  0
 49107  1  0  0  0  0
 49108  1  0  0  0  0
 50109  1  0  0  0  0
 50110  1  0  0  0  0
 50111  1  0  0  0  0
 51112  1  0  0  0  0
 51113  1  0  0  0  0
 51114  1  0  0  0  0
 52115  1  0  0  0  0
 52116  1  0  0  0  0
 52117  1  0  0  0  0
 53118  1  0  0  0  0
 53119  1  0  0  0  0
 53120  1  0  0  0  0
M  END
>  <MOL Chiral Flag>
1

>  <PUBCHEM_COMPOUND_CID>
183094

>  <PUBCHEM_COMPOUND_CANONICALIZED>
1

>  <PUBCHEM_CACTVS_COMPLEXITY>
1330

>  <PUBCHEM_CACTVS_HBOND_ACCEPTOR>
11

>  <PUBCHEM_CACTVS_HBOND_DONOR>
0

>  <PUBCHEM_CACTVS_ROTATABLE_BOND>
9

>  <PUBCHEM_CACTVS_SUBSKEYS>
AAADcfB+PAAAAAAAAAAAAAAAAAAAAYIAAAAkSIAAAAAAAEAAAAAAHgAAAAAADTzxgAcCCAMABACIAqDSCAAAAAAgAAAACAEIAEgTABYAgQAnAAAFoAAeAYPo7vyugAAAAAAAAAAAAAAAAAAAAIAACAAAAA==

>  <PUBCHEM_IUPAC_OPENEYE_NAME>
(1S,2S,5R,7S,9S,10S,14R,15S,19S)-15-[(2R,5S,6R)-5-(dimethylamino)-6-methyl-tetrahydropyran-2-yl]oxy-19-ethyl-4,14-dimethyl-7-[(2R,3R,4R,5S,6S)-3,4,5-trimethoxy-6-methyl-tetrahydropyran-2-yl]oxy-20-oxatetracyclo[10.10.0.02,10.05,9]docosa-3,11-diene-13,21-dione

>  <PUBCHEM_IUPAC_CAS_NAME>
(1S,2S,5R,7S,9S,10S,14R,15S,19S)-15-[[(2R,5S,6R)-5-(dimethylamino)-6-methyl-2-oxanyl]oxy]-19-ethyl-4,14-dimethyl-7-[[(2R,3R,4R,5S,6S)-3,4,5-trimethoxy-6-methyl-2-oxanyl]oxy]-20-oxatetracyclo[10.10.0.02,10.05,9]docosa-3,11-diene-13,21-dione

>  <PUBCHEM_IUPAC_NAME_MARKUP>
(1<I>S</I>,2<I>S</I>,5<I>R</I>,7<I>S</I>,9<I>S</I>,10<I>S</I>,14<I>R</I>,15<I>S</I>,19<I>S</I>)-15-[(2<I>R</I>,5<I>S</I>,6<I>R</I>)-5-(dimethylamino)-6-methyloxan-2-yl]oxy-19-ethyl-4,14-dimethyl-7-[(2<I>R</I>,3<I>R</I>,4<I>R</I>,5<I>S</I>,6<I>S</I>)-3,4,5-trimethoxy-6-methyloxan-2-yl]oxy-20-oxatetracyclo[10.10.0.0<SUP>2,10</SUP>.0<SUP>5,9</SUP>]docosa-3,11-diene-13,21-dione

>  <PUBCHEM_IUPAC_NAME>
(1S,2S,5R,7S,9S,10S,14R,15S,19S)-15-[(2R,5S,6R)-5-(dimethylamino)-6-methyloxan-2-yl]oxy-19-ethyl-4,14-dimethyl-7-[(2R,3R,4R,5S,6S)-3,4,5-trimethoxy-6-methyloxan-2-yl]oxy-20-oxatetracyclo[10.10.0.02,10.05,9]docosa-3,11-diene-13,21-dione

>  <PUBCHEM_IUPAC_SYSTEMATIC_NAME>
(1S,2S,5R,7S,9S,10S,14R,15S,19S)-15-[(2R,5S,6R)-5-(dimethylamino)-6-methyl-oxan-2-yl]oxy-19-ethyl-4,14-dimethyl-7-[(2R,3R,4R,5S,6S)-3,4,5-trimethoxy-6-methyl-oxan-2-yl]oxy-20-oxatetracyclo[10.10.0.02,10.05,9]docosa-3,11-diene-13,21-dione

>  <PUBCHEM_IUPAC_TRADITIONAL_NAME>
(1S,2S,5R,7S,9S,10S,14R,15S,19S)-15-[(2R,5S,6R)-5-(dimethylamino)-6-methyl-tetrahydropyran-2-yl]oxy-19-ethyl-4,14-dimethyl-7-[(2R,3R,4R,5S,6S)-3,4,5-trimethoxy-6-methyl-tetrahydropyran-2-yl]oxy-20-oxatetracyclo[10.10.0.02,10.05,9]docosa-3,11-diene-13,21-quinone

>  <PUBCHEM_IUPAC_INCHI>
InChI=1S/C42H67NO10/c1-11-26-13-12-14-35(53-37-16-15-34(43(6)7)24(4)49-37)23(3)38(45)33-20-31-29(32(33)21-36(44)51-26)17-22(2)28-18-27(19-30(28)31)52-42-41(48-10)40(47-9)39(46-8)25(5)50-42/h17,20,23-32,34-35,37,39-42H,11-16,18-19,21H2,1-10H3/t23-,24-,25+,26+,27-,28+,29-,30-,31-,32+,34+,35+,37+,39+,40-,41-,42+/m1/s1

>  <PUBCHEM_IUPAC_INCHIKEY>
RDECBWLKMPEKPM-PSCJHHPTSA-N

>  <PUBCHEM_XLOGP3_AA>
4.8

>  <PUBCHEM_EXACT_MASS>
745.47649733

>  <PUBCHEM_MOLECULAR_FORMULA>
C42H67NO10

>  <PUBCHEM_MOLECULAR_WEIGHT>
746.0

>  <PUBCHEM_SMILES>
CC[C@H]1CCC[C@@H]([C@H](C(=O)C2=C[C@H]3[C@@H]4C[C@@H](C[C@H]4C(=C[C@H]3[C@@H]2CC(=O)O1)C)O[C@H]5[C@@H]([C@@H]([C@H]([C@@H](O5)C)OC)OC)OC)C)O[C@H]6CC[C@@H]([C@H](O6)C)N(C)C

>  <PUBCHEM_CONNECTIVITY_SMILES>
CCC1CCCC(C(C(=O)C2=CC3C4CC(CC4C(=CC3C2CC(=O)O1)C)OC5C(C(C(C(O5)C)OC)OC)OC)C)OC6CCC(C(O6)C)N(C)C

>  <PUBCHEM_CACTVS_TPSA>
111

>  <PUBCHEM_MONOISOTOPIC_WEIGHT>
745.47649733

>  <PUBCHEM_TOTAL_CHARGE>
0

>  <PUBCHEM_HEAVY_ATOM_COUNT>
53

>  <PUBCHEM_ATOM_DEF_STEREO_COUNT>
17

>  <PUBCHEM_ATOM_UDEF_STEREO_COUNT>
0

>  <PUBCHEM_BOND_DEF_STEREO_COUNT>
0

>  <PUBCHEM_BOND_UDEF_STEREO_COUNT>
0

>  <PUBCHEM_ISOTOPIC_ATOM_COUNT>
0

>  <PUBCHEM_COMPONENT_COUNT>
1

>  <PUBCHEM_CACTVS_TAUTO_COUNT>
-1

>  <PUBCHEM_COORDINATE_TYPE>
1
5
255

>  <PUBCHEM_BONDANNOTATIONS>
18  1  6
27  1  5
46  11  5
12  54  5
13  55  6
14  56  6
15  57  6
19  63  5
28  35  5
33  40  6
37  42  5
47  51  6
30  5  6
31  6  6
41  6  6
32  8  6
34  9  5

$$$$
