MODEL 1
REMARK VINA RESULT:      -9.2      0.000      0.000
REMARK  Name = 
REMARK  17 active torsions:
REMARK  status: ('A' for Active; 'I' for Inactive)
REMARK    1  A    between atoms: O_1  and  C_18
REMARK    2  A    between atoms: O_1  and  C_26
REMARK    3  A    between atoms: O_5  and  C_30
REMARK    4  A    between atoms: O_5  and  C_40
REMARK    5  A    between atoms: O_6  and  C_29
REMARK    6  A    between atoms: O_6  and  C_43
REMARK    7  A    between atoms: O_8  and  C_31
REMARK    8  A    between atoms: O_9  and  C_34
REMARK    9  A    between atoms: O_9  and  C_48
REMARK   10  A    between atoms: N_11  and  C_45
REMARK   11  A    between atoms: N_11  and  C_50
REMARK   12  A    between atoms: N_11  and  C_51
REMARK   13  A    between atoms: C_27  and  C_33
REMARK   14  A    between atoms: C_32  and  C_39
REMARK   15  A    between atoms: C_36  and  C_41
REMARK   16  A    between atoms: C_41  and  C_47
REMARK   17  A    between atoms: C_46  and  C_49
REMARK                            x       y       z     vdW  Elec       q    Type
REMARK                         _______ _______ _______ _____ _____    ______ ____
ROOT
ATOM      1  O   UNL     1     124.322 130.311 157.309  0.00  0.00    -0.292 OA
ATOM      2  O   UNL     1     121.284 135.496 159.708  0.00  0.00    -0.461 OA
ATOM      3  O   UNL     1     119.803 134.655 158.226  0.00  0.00    -0.251 OA
ATOM      4  C   UNL     1     119.706 130.429 155.703  0.00  0.00    +0.006 C 
ATOM      5  C   UNL     1     120.542 131.492 156.391  0.00  0.00    +0.023 C 
ATOM      6  C   UNL     1     120.574 129.224 155.417  0.00  0.00    +0.018 C 
ATOM      7  C   UNL     1     120.555 131.047 157.885  0.00  0.00    +0.027 C 
ATOM      8  C   UNL     1     118.913 130.802 154.472  0.00  0.00    +0.036 C 
ATOM      9  C   UNL     1     119.713 128.478 154.397  0.00  0.00    +0.039 C 
ATOM     10  C   UNL     1     119.130 129.624 153.533  0.00  0.00    +0.122 C 
ATOM     11  C   UNL     1     121.518 132.168 158.384  0.00  0.00    +0.040 C 
ATOM     12  C   UNL     1     122.106 131.662 156.251  0.00  0.00    -0.015 C 
ATOM     13  C   UNL     1     120.969 128.705 156.793  0.00  0.00    -0.027 C 
ATOM     14  C   UNL     1     120.976 129.513 157.899  0.00  0.00    -0.026 C 
ATOM     15  C   UNL     1     122.674 131.941 157.468  0.00  0.00    -0.004 C 
ATOM     16  C   UNL     1     121.105 133.055 159.591  0.00  0.00    +0.129 C 
ATOM     17  C   UNL     1     124.049 131.426 157.772  0.00  0.00    +0.164 C 
ATOM     18  C   UNL     1     125.098 132.124 158.651  0.00  0.00    +0.086 C 
ATOM     19  C   UNL     1     120.644 134.460 159.109  0.00  0.00    +0.308 C 
ATOM     20  C   UNL     1     125.577 133.541 158.291  0.00  0.00    +0.132 C 
ATOM     21  C   UNL     1     125.044 131.747 160.127  0.00  0.00    +0.018 C 
ATOM     22  C   UNL     1     125.629 134.643 159.382  0.00  0.00    +0.032 C 
ATOM     23  C   UNL     1     122.343 136.069 158.900  0.00  0.00    +0.176 C 
ATOM     24  C   UNL     1     124.889 135.953 159.095  0.00  0.00    +0.006 C 
ATOM     25  C   UNL     1     123.557 135.970 159.825  0.00  0.00    +0.045 C 
ENDROOT
BRANCH  23  26
ATOM     26  C   UNL     1     122.037 137.538 158.533  0.00  0.00    +0.041 C 
ATOM     27  C   UNL     1     120.996 137.681 157.424  0.00  0.00    +0.007 C 
ENDBRANCH  23  26
BRANCH  10  28
ATOM     28  O   UNL     1     117.954 129.212 152.872  0.00  0.00    -0.345 OA
BRANCH  28  30
ATOM     29  O   UNL     1     119.047 127.932 151.129  0.00  0.00    -0.343 OA
ATOM     30  C   UNL     1     117.962 128.036 152.051  0.00  0.00    +0.282 C 
ATOM     31  C   UNL     1     116.604 127.657 151.429  0.00  0.00    +0.205 C 
ATOM     32  C   UNL     1     116.337 128.445 150.143  0.00  0.00    +0.179 C 
ATOM     33  C   UNL     1     118.926 128.606 149.880  0.00  0.00    +0.150 C 
ATOM     34  C   UNL     1     117.544 128.506 149.184  0.00  0.00    +0.177 C 
ATOM     35  C   UNL     1     120.020 128.058 148.967  0.00  0.00    +0.041 C 
BRANCH  31  36
ATOM     36  O   UNL     1     116.393 126.230 151.251  0.00  0.00    -0.372 OA
ATOM     37  C   UNL     1     115.529 125.547 152.146  0.00  0.00    +0.194 C 
ENDBRANCH  31  36
BRANCH  32  38
ATOM     38  O   UNL     1     115.179 127.904 149.476  0.00  0.00    -0.386 OA
ATOM     39  H   UNL     1     114.838 128.605 148.886  0.00  0.00    +0.210 HD
ENDBRANCH  32  38
BRANCH  34  40
ATOM     40  O   UNL     1     117.356 129.485 148.137  0.00  0.00    -0.375 OA
ATOM     41  C   UNL     1     117.502 130.854 148.481  0.00  0.00    +0.194 C 
ENDBRANCH  34  40
ENDBRANCH  28  30
ENDBRANCH  10  28
BRANCH  20  42
ATOM     42  O   UNL     1     125.034 133.978 157.065  0.00  0.00    -0.347 OA
BRANCH  42  44
ATOM     43  O   UNL     1     127.334 134.174 156.420  0.00  0.00    -0.347 OA
ATOM     44  C   UNL     1     125.987 134.046 155.983  0.00  0.00    +0.251 C 
ATOM     45  C   UNL     1     125.465 134.978 154.896  0.00  0.00    +0.063 C 
ATOM     46  C   UNL     1     126.168 136.313 154.849  0.00  0.00    +0.026 C 
ATOM     47  C   UNL     1     127.692 136.207 154.929  0.00  0.00    +0.085 C 
ATOM     48  C   UNL     1     128.146 135.305 156.102  0.00  0.00    +0.135 C 
ATOM     49  C   UNL     1     128.485 136.146 157.342  0.00  0.00    +0.039 C 
BRANCH  47  50
ATOM     50  N   UNL     1     128.323 135.902 153.616  0.00  0.00    -0.303 NA
ATOM     51  C   UNL     1     127.502 136.447 152.522  0.00  0.00    +0.105 C 
ATOM     52  C   UNL     1     129.699 136.375 153.451  0.00  0.00    +0.105 C 
ENDBRANCH  47  50
ENDBRANCH  42  44
ENDBRANCH  20  42
TORSDOF 9
ENDMDL
MODEL 2
REMARK VINA RESULT:      -8.8      0.992      2.057
REMARK  Name = 
REMARK  17 active torsions:
REMARK  status: ('A' for Active; 'I' for Inactive)
REMARK    1  A    between atoms: O_1  and  C_18
REMARK    2  A    between atoms: O_1  and  C_26
REMARK    3  A    between atoms: O_5  and  C_30
REMARK    4  A    between atoms: O_5  and  C_40
REMARK    5  A    between atoms: O_6  and  C_29
REMARK    6  A    between atoms: O_6  and  C_43
REMARK    7  A    between atoms: O_8  and  C_31
REMARK    8  A    between atoms: O_9  and  C_34
REMARK    9  A    between atoms: O_9  and  C_48
REMARK   10  A    between atoms: N_11  and  C_45
REMARK   11  A    between atoms: N_11  and  C_50
REMARK   12  A    between atoms: N_11  and  C_51
REMARK   13  A    between atoms: C_27  and  C_33
REMARK   14  A    between atoms: C_32  and  C_39
REMARK   15  A    between atoms: C_36  and  C_41
REMARK   16  A    between atoms: C_41  and  C_47
REMARK   17  A    between atoms: C_46  and  C_49
REMARK                            x       y       z     vdW  Elec       q    Type
REMARK                         _______ _______ _______ _____ _____    ______ ____
ROOT
ATOM      1  O   UNL     1     124.342 130.464 157.245  0.00  0.00    -0.292 OA
ATOM      2  O   UNL     1     121.236 135.622 159.614  0.00  0.00    -0.461 OA
ATOM      3  O   UNL     1     119.741 134.716 158.185  0.00  0.00    -0.251 OA
ATOM      4  C   UNL     1     119.687 130.439 155.749  0.00  0.00    +0.006 C 
ATOM      5  C   UNL     1     120.513 131.535 156.396  0.00  0.00    +0.023 C 
ATOM      6  C   UNL     1     120.577 129.249 155.466  0.00  0.00    +0.018 C 
ATOM      7  C   UNL     1     120.573 131.121 157.898  0.00  0.00    +0.027 C 
ATOM      8  C   UNL     1     118.857 130.767 154.531  0.00  0.00    +0.036 C 
ATOM      9  C   UNL     1     119.710 128.463 154.482  0.00  0.00    +0.039 C 
ATOM     10  C   UNL     1     119.080 129.576 153.610  0.00  0.00    +0.122 C 
ATOM     11  C   UNL     1     121.519 132.275 158.351  0.00  0.00    +0.040 C 
ATOM     12  C   UNL     1     122.069 131.740 156.215  0.00  0.00    -0.015 C 
ATOM     13  C   UNL     1     121.017 128.769 156.843  0.00  0.00    -0.027 C 
ATOM     14  C   UNL     1     121.031 129.598 157.932  0.00  0.00    -0.026 C 
ATOM     15  C   UNL     1     122.658 132.057 157.412  0.00  0.00    -0.004 C 
ATOM     16  C   UNL     1     121.113 133.177 159.550  0.00  0.00    +0.129 C 
ATOM     17  C   UNL     1     124.053 131.582 157.692  0.00  0.00    +0.164 C 
ATOM     18  C   UNL     1     125.105 132.322 158.531  0.00  0.00    +0.086 C 
ATOM     19  C   UNL     1     120.607 134.560 159.051  0.00  0.00    +0.308 C 
ATOM     20  C   UNL     1     125.540 133.743 158.133  0.00  0.00    +0.132 C 
ATOM     21  C   UNL     1     125.095 131.974 160.016  0.00  0.00    +0.018 C 
ATOM     22  C   UNL     1     125.591 134.868 159.200  0.00  0.00    +0.032 C 
ATOM     23  C   UNL     1     122.261 136.204 158.769  0.00  0.00    +0.176 C 
ATOM     24  C   UNL     1     124.813 136.154 158.905  0.00  0.00    +0.006 C 
ATOM     25  C   UNL     1     123.499 136.154 159.666  0.00  0.00    +0.045 C 
ENDROOT
BRANCH  23  26
ATOM     26  C   UNL     1     121.910 137.658 158.381  0.00  0.00    +0.041 C 
ATOM     27  C   UNL     1     120.895 137.753 157.244  0.00  0.00    +0.007 C 
ENDBRANCH  23  26
BRANCH  10  28
ATOM     28  O   UNL     1     117.898 129.123 152.987  0.00  0.00    -0.345 OA
BRANCH  28  30
ATOM     29  O   UNL     1     116.655 128.496 151.004  0.00  0.00    -0.343 OA
ATOM     30  C   UNL     1     117.753 129.218 151.563  0.00  0.00    +0.282 C 
ATOM     31  C   UNL     1     119.055 129.057 150.755  0.00  0.00    +0.205 C 
ATOM     32  C   UNL     1     119.398 127.580 150.533  0.00  0.00    +0.179 C 
ATOM     33  C   UNL     1     116.841 127.109 150.730  0.00  0.00    +0.150 C 
ATOM     34  C   UNL     1     118.198 126.718 150.089  0.00  0.00    +0.177 C 
ATOM     35  C   UNL     1     115.685 126.671 149.833  0.00  0.00    +0.041 C 
BRANCH  31  36
ATOM     36  O   UNL     1     119.104 129.822 149.520  0.00  0.00    -0.372 OA
ATOM     37  C   UNL     1     117.932 130.492 149.081  0.00  0.00    +0.194 C 
ENDBRANCH  31  36
BRANCH  32  38
ATOM     38  O   UNL     1     120.483 127.473 149.589  0.00  0.00    -0.386 OA
ATOM     39  H   UNL     1     121.183 126.945 150.022  0.00  0.00    +0.210 HD
ENDBRANCH  32  38
BRANCH  34  40
ATOM     40  O   UNL     1     118.485 125.305 150.172  0.00  0.00    -0.375 OA
ATOM     41  C   UNL     1     118.601 124.583 148.955  0.00  0.00    +0.194 C 
ENDBRANCH  34  40
ENDBRANCH  28  30
ENDBRANCH  10  28
BRANCH  20  42
ATOM     42  O   UNL     1     124.958 134.142 156.911  0.00  0.00    -0.347 OA
BRANCH  42  44
ATOM     43  O   UNL     1     127.247 134.184 156.203  0.00  0.00    -0.347 OA
ATOM     44  C   UNL     1     125.882 134.208 155.805  0.00  0.00    +0.251 C 
ATOM     45  C   UNL     1     125.415 135.261 154.807  0.00  0.00    +0.063 C 
ATOM     46  C   UNL     1     126.234 136.529 154.832  0.00  0.00    +0.026 C 
ATOM     47  C   UNL     1     127.744 136.285 154.852  0.00  0.00    +0.085 C 
ATOM     48  C   UNL     1     128.148 135.260 155.940  0.00  0.00    +0.135 C 
ATOM     49  C   UNL     1     128.596 135.973 157.225  0.00  0.00    +0.039 C 
BRANCH  47  50
ATOM     50  N   UNL     1     128.308 136.025 153.498  0.00  0.00    -0.303 NA
ATOM     51  C   UNL     1     127.382 136.515 152.464  0.00  0.00    +0.105 C 
ATOM     52  C   UNL     1     129.635 136.590 153.248  0.00  0.00    +0.105 C 
ENDBRANCH  47  50
ENDBRANCH  42  44
ENDBRANCH  20  42
TORSDOF 9
ENDMDL
MODEL 3
REMARK VINA RESULT:      -8.4     27.570     30.791
REMARK  Name = 
REMARK  17 active torsions:
REMARK  status: ('A' for Active; 'I' for Inactive)
REMARK    1  A    between atoms: O_1  and  C_18
REMARK    2  A    between atoms: O_1  and  C_26
REMARK    3  A    between atoms: O_5  and  C_30
REMARK    4  A    between atoms: O_5  and  C_40
REMARK    5  A    between atoms: O_6  and  C_29
REMARK    6  A    between atoms: O_6  and  C_43
REMARK    7  A    between atoms: O_8  and  C_31
REMARK    8  A    between atoms: O_9  and  C_34
REMARK    9  A    between atoms: O_9  and  C_48
REMARK   10  A    between atoms: N_11  and  C_45
REMARK   11  A    between atoms: N_11  and  C_50
REMARK   12  A    between atoms: N_11  and  C_51
REMARK   13  A    between atoms: C_27  and  C_33
REMARK   14  A    between atoms: C_32  and  C_39
REMARK   15  A    between atoms: C_36  and  C_41
REMARK   16  A    between atoms: C_41  and  C_47
REMARK   17  A    between atoms: C_46  and  C_49
REMARK                            x       y       z     vdW  Elec       q    Type
REMARK                         _______ _______ _______ _____ _____    ______ ____
ROOT
ATOM      1  O   UNL     1     118.091 129.526 129.192  0.00  0.00    -0.292 OA
ATOM      2  O   UNL     1     115.999 128.180 123.219  0.00  0.00    -0.461 OA
ATOM      3  O   UNL     1     118.246 128.190 123.001  0.00  0.00    -0.251 OA
ATOM      4  C   UNL     1     121.876 128.370 126.320  0.00  0.00    +0.006 C 
ATOM      5  C   UNL     1     120.438 128.709 125.974  0.00  0.00    +0.023 C 
ATOM      6  C   UNL     1     122.087 128.563 127.806  0.00  0.00    +0.018 C 
ATOM      7  C   UNL     1     119.652 127.412 126.335  0.00  0.00    +0.027 C 
ATOM      8  C   UNL     1     122.993 129.032 125.548  0.00  0.00    +0.036 C 
ATOM      9  C   UNL     1     123.613 128.587 127.884  0.00  0.00    +0.039 C 
ATOM     10  C   UNL     1     124.012 129.388 126.620  0.00  0.00    +0.122 C 
ATOM     11  C   UNL     1     118.235 127.984 126.019  0.00  0.00    +0.040 C 
ATOM     12  C   UNL     1     119.509 129.701 126.781  0.00  0.00    -0.015 C 
ATOM     13  C   UNL     1     121.180 127.525 128.456  0.00  0.00    -0.027 C 
ATOM     14  C   UNL     1     120.084 127.014 127.813  0.00  0.00    -0.026 C 
ATOM     15  C   UNL     1     118.242 129.190 126.897  0.00  0.00    -0.004 C 
ATOM     16  C   UNL     1     117.290 127.208 125.059  0.00  0.00    +0.129 C 
ATOM     17  C   UNL     1     117.446 129.476 128.136  0.00  0.00    +0.164 C 
ATOM     18  C   UNL     1     115.921 129.638 128.209  0.00  0.00    +0.086 C 
ATOM     19  C   UNL     1     117.247 127.887 123.661  0.00  0.00    +0.308 C 
ATOM     20  C   UNL     1     115.225 130.721 127.367  0.00  0.00    +0.132 C 
ATOM     21  C   UNL     1     115.155 128.346 128.475  0.00  0.00    +0.018 C 
ATOM     22  C   UNL     1     113.978 130.361 126.516  0.00  0.00    +0.032 C 
ATOM     23  C   UNL     1     115.630 129.571 123.400  0.00  0.00    +0.176 C 
ATOM     24  C   UNL     1     114.019 130.709 125.025  0.00  0.00    +0.006 C 
ATOM     25  C   UNL     1     114.336 129.469 124.208  0.00  0.00    +0.045 C 
ENDROOT
BRANCH  23  26
ATOM     26  C   UNL     1     115.389 130.269 122.043  0.00  0.00    +0.041 C 
ATOM     27  C   UNL     1     116.676 130.739 121.367  0.00  0.00    +0.007 C 
ENDBRANCH  23  26
BRANCH  10  28
ATOM     28  O   UNL     1     125.342 129.108 126.242  0.00  0.00    -0.345 OA
BRANCH  28  30
ATOM     29  O   UNL     1     127.213 129.698 124.820  0.00  0.00    -0.343 OA
ATOM     30  C   UNL     1     126.165 130.141 125.682  0.00  0.00    +0.282 C 
ATOM     31  C   UNL     1     126.619 131.231 126.672  0.00  0.00    +0.205 C 
ATOM     32  C   UNL     1     127.858 130.792 127.459  0.00  0.00    +0.179 C 
ATOM     33  C   UNL     1     128.434 129.274 125.419  0.00  0.00    +0.150 C 
ATOM     34  C   UNL     1     128.957 130.148 126.589  0.00  0.00    +0.177 C 
ATOM     35  C   UNL     1     129.477 129.199 124.307  0.00  0.00    +0.041 C 
BRANCH  31  36
ATOM     36  O   UNL     1     126.779 132.553 126.091  0.00  0.00    -0.372 OA
ATOM     37  C   UNL     1     125.846 132.991 125.115  0.00  0.00    +0.194 C 
ENDBRANCH  31  36
BRANCH  32  38
ATOM     38  O   UNL     1     128.382 131.914 128.199  0.00  0.00    -0.386 OA
ATOM     39  H   UNL     1     127.649 132.258 128.749  0.00  0.00    +0.210 HD
ENDBRANCH  32  38
BRANCH  34  40
ATOM     40  O   UNL     1     129.967 129.492 127.388  0.00  0.00    -0.375 OA
ATOM     41  C   UNL     1     131.258 130.081 127.432  0.00  0.00    +0.194 C 
ENDBRANCH  34  40
ENDBRANCH  28  30
ENDBRANCH  10  28
BRANCH  20  42
ATOM     42  O   UNL     1     116.159 131.536 126.693  0.00  0.00    -0.347 OA
BRANCH  42  44
ATOM     43  O   UNL     1     115.208 133.462 127.754  0.00  0.00    -0.347 OA
ATOM     44  C   UNL     1     116.396 132.813 127.320  0.00  0.00    +0.251 C 
ATOM     45  C   UNL     1     117.423 133.600 126.513  0.00  0.00    +0.063 C 
ATOM     46  C   UNL     1     116.829 134.737 125.717  0.00  0.00    +0.026 C 
ATOM     47  C   UNL     1     115.841 135.593 126.512  0.00  0.00    +0.085 C 
ATOM     48  C   UNL     1     114.786 134.727 127.242  0.00  0.00    +0.135 C 
ATOM     49  C   UNL     1     113.496 134.620 126.416  0.00  0.00    +0.039 C 
BRANCH  47  50
ATOM     50  N   UNL     1     116.511 136.620 127.356  0.00  0.00    -0.303 NA
ATOM     51  C   UNL     1     117.141 137.641 126.504  0.00  0.00    +0.105 C 
ATOM     52  C   UNL     1     115.653 137.289 128.336  0.00  0.00    +0.105 C 
ENDBRANCH  47  50
ENDBRANCH  42  44
ENDBRANCH  20  42
TORSDOF 9
ENDMDL
MODEL 4
REMARK VINA RESULT:      -8.4     36.997     43.754
REMARK  Name = 
REMARK  17 active torsions:
REMARK  status: ('A' for Active; 'I' for Inactive)
REMARK    1  A    between atoms: O_1  and  C_18
REMARK    2  A    between atoms: O_1  and  C_26
REMARK    3  A    between atoms: O_5  and  C_30
REMARK    4  A    between atoms: O_5  and  C_40
REMARK    5  A    between atoms: O_6  and  C_29
REMARK    6  A    between atoms: O_6  and  C_43
REMARK    7  A    between atoms: O_8  and  C_31
REMARK    8  A    between atoms: O_9  and  C_34
REMARK    9  A    between atoms: O_9  and  C_48
REMARK   10  A    between atoms: N_11  and  C_45
REMARK   11  A    between atoms: N_11  and  C_50
REMARK   12  A    between atoms: N_11  and  C_51
REMARK   13  A    between atoms: C_27  and  C_33
REMARK   14  A    between atoms: C_32  and  C_39
REMARK   15  A    between atoms: C_36  and  C_41
REMARK   16  A    between atoms: C_41  and  C_47
REMARK   17  A    between atoms: C_46  and  C_49
REMARK                            x       y       z     vdW  Elec       q    Type
REMARK                         _______ _______ _______ _____ _____    ______ ____
ROOT
ATOM      1  O   UNL     1     102.546  96.657 139.006  0.00  0.00    -0.292 OA
ATOM      2  O   UNL     1     107.940  99.105 141.610  0.00  0.00    -0.461 OA
ATOM      3  O   UNL     1     107.558  97.248 142.835  0.00  0.00    -0.251 OA
ATOM      4  C   UNL     1     104.398  93.518 142.265  0.00  0.00    +0.006 C 
ATOM      5  C   UNL     1     104.716  94.978 142.006  0.00  0.00    +0.023 C 
ATOM      6  C   UNL     1     103.229  93.104 141.398  0.00  0.00    +0.018 C 
ATOM      7  C   UNL     1     105.584  94.947 140.711  0.00  0.00    +0.027 C 
ATOM      8  C   UNL     1     104.178  93.055 143.686  0.00  0.00    +0.036 C 
ATOM      9  C   UNL     1     102.808  91.800 142.077  0.00  0.00    +0.039 C 
ATOM     10  C   UNL     1     102.980  92.122 143.582  0.00  0.00    +0.122 C 
ATOM     11  C   UNL     1     105.712  96.494 140.560  0.00  0.00    +0.040 C 
ATOM     12  C   UNL     1     103.689  96.065 141.495  0.00  0.00    -0.015 C 
ATOM     13  C   UNL     1     103.748  93.235 139.972  0.00  0.00    -0.027 C 
ATOM     14  C   UNL     1     104.791  94.064 139.652  0.00  0.00    -0.026 C 
ATOM     15  C   UNL     1     104.269  96.872 140.550  0.00  0.00    -0.004 C 
ATOM     16  C   UNL     1     107.119  97.137 140.404  0.00  0.00    +0.129 C 
ATOM     17  C   UNL     1     103.429  97.413 139.432  0.00  0.00    +0.164 C 
ATOM     18  C   UNL     1     103.617  98.771 138.740  0.00  0.00    +0.086 C 
ATOM     19  C   UNL     1     107.569  97.806 141.734  0.00  0.00    +0.308 C 
ATOM     20  C   UNL     1     103.562 100.066 139.568  0.00  0.00    +0.132 C 
ATOM     21  C   UNL     1     104.539  98.745 137.526  0.00  0.00    +0.018 C 
ATOM     22  C   UNL     1     104.668 101.141 139.404  0.00  0.00    +0.032 C 
ATOM     23  C   UNL     1     106.912 100.044 142.016  0.00  0.00    +0.176 C 
ATOM     24  C   UNL     1     105.397 101.601 140.671  0.00  0.00    +0.006 C 
ATOM     25  C   UNL     1     106.749 100.918 140.772  0.00  0.00    +0.045 C 
ENDROOT
BRANCH  23  26
ATOM     26  C   UNL     1     107.367 100.881 143.233  0.00  0.00    +0.041 C 
ATOM     27  C   UNL     1     108.880 100.876 143.439  0.00  0.00    +0.007 C 
ENDBRANCH  23  26
BRANCH  10  28
ATOM     28  O   UNL     1     103.124  90.941 144.339  0.00  0.00    -0.345 OA
BRANCH  28  30
ATOM     29  O   UNL     1     103.756  88.703 143.660  0.00  0.00    -0.343 OA
ATOM     30  C   UNL     1     104.176  90.014 144.037  0.00  0.00    +0.282 C 
ATOM     31  C   UNL     1     105.354  90.008 145.030  0.00  0.00    +0.205 C 
ATOM     32  C   UNL     1     105.054  89.133 146.251  0.00  0.00    +0.179 C 
ATOM     33  C   UNL     1     103.458  87.775 144.700  0.00  0.00    +0.150 C 
ATOM     34  C   UNL     1     104.437  87.763 145.903  0.00  0.00    +0.177 C 
ATOM     35  C   UNL     1     103.389  86.391 144.059  0.00  0.00    +0.041 C 
BRANCH  31  36
ATOM     36  O   UNL     1     106.646  89.700 144.440  0.00  0.00    -0.372 OA
ATOM     37  C   UNL     1     106.965  90.240 143.166  0.00  0.00    +0.194 C 
ENDBRANCH  31  36
BRANCH  32  38
ATOM     38  O   UNL     1     106.253  88.970 147.035  0.00  0.00    -0.386 OA
ATOM     39  H   UNL     1     106.161  88.127 147.522  0.00  0.00    +0.210 HD
ENDBRANCH  32  38
BRANCH  34  40
ATOM     40  O   UNL     1     103.905  87.095 147.069  0.00  0.00    -0.375 OA
ATOM     41  C   UNL     1     104.583  85.937 147.532  0.00  0.00    +0.194 C 
ENDBRANCH  34  40
ENDBRANCH  28  30
ENDBRANCH  10  28
BRANCH  20  42
ATOM     42  O   UNL     1     103.210  99.810 140.911  0.00  0.00    -0.347 OA
BRANCH  42  44
ATOM     43  O   UNL     1     101.336  99.499 142.370  0.00  0.00    -0.347 OA
ATOM     44  C   UNL     1     101.870 100.212 141.262  0.00  0.00    +0.251 C 
ATOM     45  C   UNL     1     101.030 100.364 139.999  0.00  0.00    +0.063 C 
ATOM     46  C   UNL     1     100.036  99.248 139.791  0.00  0.00    +0.026 C 
ATOM     47  C   UNL     1      99.245  98.888 141.051  0.00  0.00    +0.085 C 
ATOM     48  C   UNL     1     100.172  98.677 142.273  0.00  0.00    +0.135 C 
ATOM     49  C   UNL     1     100.494  97.187 142.467  0.00  0.00    +0.039 C 
BRANCH  47  50
ATOM     50  N   UNL     1      98.085  99.790 141.286  0.00  0.00    -0.303 NA
ATOM     51  C   UNL     1      97.424 100.105 140.009  0.00  0.00    +0.105 C 
ATOM     52  C   UNL     1      97.079  99.293 142.226  0.00  0.00    +0.105 C 
ENDBRANCH  47  50
ENDBRANCH  42  44
ENDBRANCH  20  42
TORSDOF 9
ENDMDL
MODEL 5
REMARK VINA RESULT:      -8.3     27.304     32.740
REMARK  Name = 
REMARK  17 active torsions:
REMARK  status: ('A' for Active; 'I' for Inactive)
REMARK    1  A    between atoms: O_1  and  C_18
REMARK    2  A    between atoms: O_1  and  C_26
REMARK    3  A    between atoms: O_5  and  C_30
REMARK    4  A    between atoms: O_5  and  C_40
REMARK    5  A    between atoms: O_6  and  C_29
REMARK    6  A    between atoms: O_6  and  C_43
REMARK    7  A    between atoms: O_8  and  C_31
REMARK    8  A    between atoms: O_9  and  C_34
REMARK    9  A    between atoms: O_9  and  C_48
REMARK   10  A    between atoms: N_11  and  C_45
REMARK   11  A    between atoms: N_11  and  C_50
REMARK   12  A    between atoms: N_11  and  C_51
REMARK   13  A    between atoms: C_27  and  C_33
REMARK   14  A    between atoms: C_32  and  C_39
REMARK   15  A    between atoms: C_36  and  C_41
REMARK   16  A    between atoms: C_41  and  C_47
REMARK   17  A    between atoms: C_46  and  C_49
REMARK                            x       y       z     vdW  Elec       q    Type
REMARK                         _______ _______ _______ _____ _____    ______ ____
ROOT
ATOM      1  O   UNL     1     150.707 130.232 139.344  0.00  0.00    -0.292 OA
ATOM      2  O   UNL     1     144.873 128.816 141.757  0.00  0.00    -0.461 OA
ATOM      3  O   UNL     1     144.807 127.948 139.674  0.00  0.00    -0.251 OA
ATOM      4  C   UNL     1     148.298 127.292 136.267  0.00  0.00    +0.006 C 
ATOM      5  C   UNL     1     147.811 128.084 137.466  0.00  0.00    +0.023 C 
ATOM      6  C   UNL     1     149.750 127.631 136.007  0.00  0.00    +0.018 C 
ATOM      7  C   UNL     1     148.306 127.253 138.689  0.00  0.00    +0.027 C 
ATOM      8  C   UNL     1     147.513 127.353 134.978  0.00  0.00    +0.036 C 
ATOM      9  C   UNL     1     149.926 127.094 134.587  0.00  0.00    +0.039 C 
ATOM     10  C   UNL     1     148.587 127.470 133.906  0.00  0.00    +0.122 C 
ATOM     11  C   UNL     1     147.814 128.254 139.780  0.00  0.00    +0.040 C 
ATOM     12  C   UNL     1     148.397 129.468 137.952  0.00  0.00    -0.015 C 
ATOM     13  C   UNL     1     150.484 127.129 137.244  0.00  0.00    -0.027 C 
ATOM     14  C   UNL     1     149.853 126.968 138.449  0.00  0.00    -0.026 C 
ATOM     15  C   UNL     1     148.503 129.495 139.319  0.00  0.00    -0.004 C 
ATOM     16  C   UNL     1     146.919 127.744 140.944  0.00  0.00    +0.129 C 
ATOM     17  C   UNL     1     149.629 130.256 139.954  0.00  0.00    +0.164 C 
ATOM     18  C   UNL     1     149.575 130.987 141.303  0.00  0.00    +0.086 C 
ATOM     19  C   UNL     1     145.436 128.152 140.717  0.00  0.00    +0.308 C 
ATOM     20  C   UNL     1     148.537 132.099 141.530  0.00  0.00    +0.132 C 
ATOM     21  C   UNL     1     149.978 130.138 142.504  0.00  0.00    +0.018 C 
ATOM     22  C   UNL     1     147.667 132.100 142.815  0.00  0.00    +0.032 C 
ATOM     23  C   UNL     1     144.821 130.253 141.570  0.00  0.00    +0.176 C 
ATOM     24  C   UNL     1     146.147 132.160 142.636  0.00  0.00    +0.006 C 
ATOM     25  C   UNL     1     145.546 130.776 142.810  0.00  0.00    +0.045 C 
ENDROOT
BRANCH  23  26
ATOM     26  C   UNL     1     143.362 130.760 141.519  0.00  0.00    +0.041 C 
ATOM     27  C   UNL     1     142.582 130.489 142.804  0.00  0.00    +0.007 C 
ENDBRANCH  23  26
BRANCH  10  28
ATOM     28  O   UNL     1     148.344 126.655 132.781  0.00  0.00    -0.345 OA
BRANCH  28  30
ATOM     29  O   UNL     1     148.306 126.983 130.381  0.00  0.00    -0.343 OA
ATOM     30  C   UNL     1     149.086 126.858 131.570  0.00  0.00    +0.282 C 
ATOM     31  C   UNL     1     150.317 125.950 131.391  0.00  0.00    +0.205 C 
ATOM     32  C   UNL     1     149.928 124.583 130.819  0.00  0.00    +0.179 C 
ATOM     33  C   UNL     1     147.886 125.786 129.731  0.00  0.00    +0.150 C 
ATOM     34  C   UNL     1     148.946 124.658 129.631  0.00  0.00    +0.177 C 
ATOM     35  C   UNL     1     147.398 126.180 128.339  0.00  0.00    +0.041 C 
BRANCH  31  36
ATOM     36  O   UNL     1     151.420 126.554 130.662  0.00  0.00    -0.372 OA
ATOM     37  C   UNL     1     151.730 127.920 130.896  0.00  0.00    +0.194 C 
ENDBRANCH  31  36
BRANCH  32  38
ATOM     38  O   UNL     1     151.118 123.855 130.454  0.00  0.00    -0.386 OA
ATOM     39  H   UNL     1     151.425 124.223 129.601  0.00  0.00    +0.210 HD
ENDBRANCH  32  38
BRANCH  34  40
ATOM     40  O   UNL     1     148.382 123.367 129.311  0.00  0.00    -0.375 OA
ATOM     41  C   UNL     1     148.658 122.827 128.028  0.00  0.00    +0.194 C 
ENDBRANCH  34  40
ENDBRANCH  28  30
ENDBRANCH  10  28
BRANCH  20  42
ATOM     42  O   UNL     1     147.814 132.384 140.352  0.00  0.00    -0.347 OA
BRANCH  42  44
ATOM     43  O   UNL     1     147.528 133.852 138.480  0.00  0.00    -0.347 OA
ATOM     44  C   UNL     1     148.124 133.661 139.758  0.00  0.00    +0.251 C 
ATOM     45  C   UNL     1     149.605 133.968 139.942  0.00  0.00    +0.063 C 
ATOM     46  C   UNL     1     150.420 133.818 138.680  0.00  0.00    +0.026 C 
ATOM     47  C   UNL     1     149.776 134.466 137.453  0.00  0.00    +0.085 C 
ATOM     48  C   UNL     1     148.294 134.047 137.291  0.00  0.00    +0.135 C 
ATOM     49  C   UNL     1     148.160 132.872 136.312  0.00  0.00    +0.039 C 
BRANCH  47  50
ATOM     50  N   UNL     1     150.032 135.930 137.367  0.00  0.00    -0.303 NA
ATOM     51  C   UNL     1     151.475 136.197 137.480  0.00  0.00    +0.105 C 
ATOM     52  C   UNL     1     149.525 136.590 136.162  0.00  0.00    +0.105 C 
ENDBRANCH  47  50
ENDBRANCH  42  44
ENDBRANCH  20  42
TORSDOF 9
ENDMDL
MODEL 6
REMARK VINA RESULT:      -8.3     31.869     35.175
REMARK  Name = 
REMARK  17 active torsions:
REMARK  status: ('A' for Active; 'I' for Inactive)
REMARK    1  A    between atoms: O_1  and  C_18
REMARK    2  A    between atoms: O_1  and  C_26
REMARK    3  A    between atoms: O_5  and  C_30
REMARK    4  A    between atoms: O_5  and  C_40
REMARK    5  A    between atoms: O_6  and  C_29
REMARK    6  A    between atoms: O_6  and  C_43
REMARK    7  A    between atoms: O_8  and  C_31
REMARK    8  A    between atoms: O_9  and  C_34
REMARK    9  A    between atoms: O_9  and  C_48
REMARK   10  A    between atoms: N_11  and  C_45
REMARK   11  A    between atoms: N_11  and  C_50
REMARK   12  A    between atoms: N_11  and  C_51
REMARK   13  A    between atoms: C_27  and  C_33
REMARK   14  A    between atoms: C_32  and  C_39
REMARK   15  A    between atoms: C_36  and  C_41
REMARK   16  A    between atoms: C_41  and  C_47
REMARK   17  A    between atoms: C_46  and  C_49
REMARK                            x       y       z     vdW  Elec       q    Type
REMARK                         _______ _______ _______ _____ _____    ______ ____
ROOT
ATOM      1  O   UNL     1     128.601 116.715 128.826  0.00  0.00    -0.292 OA
ATOM      2  O   UNL     1     129.177 117.791 122.472  0.00  0.00    -0.461 OA
ATOM      3  O   UNL     1     127.379 116.434 122.616  0.00  0.00    -0.251 OA
ATOM      4  C   UNL     1     124.747 114.851 126.463  0.00  0.00    +0.006 C 
ATOM      5  C   UNL     1     126.083 115.349 125.942  0.00  0.00    +0.023 C 
ATOM      6  C   UNL     1     124.766 114.875 127.976  0.00  0.00    +0.018 C 
ATOM      7  C   UNL     1     125.949 116.902 125.998  0.00  0.00    +0.027 C 
ATOM      8  C   UNL     1     124.216 113.525 125.972  0.00  0.00    +0.036 C 
ATOM      9  C   UNL     1     123.565 113.985 128.297  0.00  0.00    +0.039 C 
ATOM     10  C   UNL     1     123.667 112.868 127.230  0.00  0.00    +0.122 C 
ATOM     11  C   UNL     1     127.408 117.210 125.540  0.00  0.00    +0.040 C 
ATOM     12  C   UNL     1     127.458 115.269 126.715  0.00  0.00    -0.015 C 
ATOM     13  C   UNL     1     124.898 116.351 128.330  0.00  0.00    -0.027 C 
ATOM     14  C   UNL     1     125.436 117.262 127.460  0.00  0.00    -0.026 C 
ATOM     15  C   UNL     1     128.168 116.431 126.561  0.00  0.00    -0.004 C 
ATOM     16  C   UNL     1     127.651 118.179 124.348  0.00  0.00    +0.129 C 
ATOM     17  C   UNL     1     129.035 116.917 127.684  0.00  0.00    +0.164 C 
ATOM     18  C   UNL     1     130.354 117.690 127.536  0.00  0.00    +0.086 C 
ATOM     19  C   UNL     1     128.026 117.386 123.063  0.00  0.00    +0.308 C 
ATOM     20  C   UNL     1     131.519 117.071 126.745  0.00  0.00    +0.132 C 
ATOM     21  C   UNL     1     130.202 119.207 127.504  0.00  0.00    +0.018 C 
ATOM     22  C   UNL     1     132.258 117.907 125.667  0.00  0.00    +0.032 C 
ATOM     23  C   UNL     1     130.315 116.945 122.776  0.00  0.00    +0.176 C 
ATOM     24  C   UNL     1     132.363 117.309 124.261  0.00  0.00    +0.006 C 
ATOM     25  C   UNL     1     131.326 117.940 123.348  0.00  0.00    +0.045 C 
ENDROOT
BRANCH  23  26
ATOM     26  C   UNL     1     130.861 116.261 121.502  0.00  0.00    +0.041 C 
ATOM     27  C   UNL     1     130.047 116.576 120.249  0.00  0.00    +0.007 C 
ENDBRANCH  23  26
BRANCH  10  28
ATOM     28  O   UNL     1     122.419 112.241 127.033  0.00  0.00    -0.345 OA
BRANCH  28  30
ATOM     29  O   UNL     1     121.230 111.039 125.297  0.00  0.00    -0.343 OA
ATOM     30  C   UNL     1     122.324 111.066 126.214  0.00  0.00    +0.282 C 
ATOM     31  C   UNL     1     122.524 109.729 126.954  0.00  0.00    +0.205 C 
ATOM     32  C   UNL     1     121.229 109.260 127.625  0.00  0.00    +0.179 C 
ATOM     33  C   UNL     1     119.963 110.605 125.784  0.00  0.00    +0.150 C 
ATOM     34  C   UNL     1     119.982 109.371 126.724  0.00  0.00    +0.177 C 
ATOM     35  C   UNL     1     119.085 110.330 124.565  0.00  0.00    +0.041 C 
BRANCH  31  36
ATOM     36  O   UNL     1     123.141 108.680 126.160  0.00  0.00    -0.372 OA
ATOM     37  C   UNL     1     124.215 109.017 125.294  0.00  0.00    +0.194 C 
ENDBRANCH  31  36
BRANCH  32  38
ATOM     38  O   UNL     1     121.396 107.910 128.105  0.00  0.00    -0.386 OA
ATOM     39  H   UNL     1     122.073 107.489 127.538  0.00  0.00    +0.210 HD
ENDBRANCH  32  38
BRANCH  34  40
ATOM     40  O   UNL     1     118.756 109.200 127.470  0.00  0.00    -0.375 OA
ATOM     41  C   UNL     1     118.053 107.977 127.311  0.00  0.00    +0.194 C 
ENDBRANCH  34  40
ENDBRANCH  28  30
ENDBRANCH  10  28
BRANCH  20  42
ATOM     42  O   UNL     1     131.230 115.750 126.341  0.00  0.00    -0.347 OA
BRANCH  42  44
ATOM     43  O   UNL     1     133.220 115.054 127.480  0.00  0.00    -0.347 OA
ATOM     44  C   UNL     1     131.881 114.731 127.129  0.00  0.00    +0.251 C 
ATOM     45  C   UNL     1     131.575 113.356 126.546  0.00  0.00    +0.063 C 
ATOM     46  C   UNL     1     132.737 112.734 125.811  0.00  0.00    +0.026 C 
ATOM     47  C   UNL     1     134.065 112.833 126.566  0.00  0.00    +0.085 C 
ATOM     48  C   UNL     1     134.340 114.273 127.061  0.00  0.00    +0.135 C 
ATOM     49  C   UNL     1     135.242 115.030 126.075  0.00  0.00    +0.039 C 
BRANCH  47  50
ATOM     50  N   UNL     1     134.229 111.768 127.594  0.00  0.00    -0.303 NA
ATOM     51  C   UNL     1     134.186 110.441 126.958  0.00  0.00    +0.105 C 
ATOM     52  C   UNL     1     135.441 111.860 128.409  0.00  0.00    +0.105 C 
ENDBRANCH  47  50
ENDBRANCH  42  44
ENDBRANCH  20  42
TORSDOF 9
ENDMDL
MODEL 7
REMARK VINA RESULT:      -8.2     27.691     31.454
REMARK  Name = 
REMARK  17 active torsions:
REMARK  status: ('A' for Active; 'I' for Inactive)
REMARK    1  A    between atoms: O_1  and  C_18
REMARK    2  A    between atoms: O_1  and  C_26
REMARK    3  A    between atoms: O_5  and  C_30
REMARK    4  A    between atoms: O_5  and  C_40
REMARK    5  A    between atoms: O_6  and  C_29
REMARK    6  A    between atoms: O_6  and  C_43
REMARK    7  A    between atoms: O_8  and  C_31
REMARK    8  A    between atoms: O_9  and  C_34
REMARK    9  A    between atoms: O_9  and  C_48
REMARK   10  A    between atoms: N_11  and  C_45
REMARK   11  A    between atoms: N_11  and  C_50
REMARK   12  A    between atoms: N_11  and  C_51
REMARK   13  A    between atoms: C_27  and  C_33
REMARK   14  A    between atoms: C_32  and  C_39
REMARK   15  A    between atoms: C_36  and  C_41
REMARK   16  A    between atoms: C_41  and  C_47
REMARK   17  A    between atoms: C_46  and  C_49
REMARK                            x       y       z     vdW  Elec       q    Type
REMARK                         _______ _______ _______ _____ _____    ______ ____
ROOT
ATOM      1  O   UNL     1     128.148 126.636 129.182  0.00  0.00    -0.292 OA
ATOM      2  O   UNL     1     125.671 128.709 123.575  0.00  0.00    -0.461 OA
ATOM      3  O   UNL     1     126.381 126.619 123.098  0.00  0.00    -0.251 OA
ATOM      4  C   UNL     1     128.012 122.962 125.959  0.00  0.00    +0.006 C 
ATOM      5  C   UNL     1     127.840 124.457 125.765  0.00  0.00    +0.023 C 
ATOM      6  C   UNL     1     128.395 122.691 127.398  0.00  0.00    +0.018 C 
ATOM      7  C   UNL     1     126.398 124.737 126.285  0.00  0.00    +0.027 C 
ATOM      8  C   UNL     1     128.925 122.200 125.028  0.00  0.00    +0.036 C 
ATOM      9  C   UNL     1     128.914 121.256 127.298  0.00  0.00    +0.039 C 
ATOM     10  C   UNL     1     129.683 121.260 125.954  0.00  0.00    +0.122 C 
ATOM     11  C   UNL     1     126.454 126.285 126.103  0.00  0.00    +0.040 C 
ATOM     12  C   UNL     1     128.550 125.581 126.617  0.00  0.00    -0.015 C 
ATOM     13  C   UNL     1     127.185 123.143 128.205  0.00  0.00    -0.027 C 
ATOM     14  C   UNL     1     126.294 124.065 127.723  0.00  0.00    -0.026 C 
ATOM     15  C   UNL     1     127.673 126.594 126.908  0.00  0.00    -0.004 C 
ATOM     16  C   UNL     1     125.333 127.007 125.305  0.00  0.00    +0.129 C 
ATOM     17  C   UNL     1     127.799 127.323 128.213  0.00  0.00    +0.164 C 
ATOM     18  C   UNL     1     127.469 128.804 128.453  0.00  0.00    +0.086 C 
ATOM     19  C   UNL     1     125.835 127.398 123.885  0.00  0.00    +0.308 C 
ATOM     20  C   UNL     1     128.192 129.890 127.638  0.00  0.00    +0.132 C 
ATOM     21  C   UNL     1     126.030 129.075 128.877  0.00  0.00    +0.018 C 
ATOM     22  C   UNL     1     127.377 131.023 126.959  0.00  0.00    +0.032 C 
ATOM     23  C   UNL     1     126.881 129.495 123.721  0.00  0.00    +0.176 C 
ATOM     24  C   UNL     1     127.584 131.235 125.456  0.00  0.00    +0.006 C 
ATOM     25  C   UNL     1     126.443 130.605 124.678  0.00  0.00    +0.045 C 
ENDROOT
BRANCH  23  26
ATOM     26  C   UNL     1     127.340 130.075 122.364  0.00  0.00    +0.041 C 
ATOM     27  C   UNL     1     128.330 129.176 121.626  0.00  0.00    +0.007 C 
ENDBRANCH  23  26
BRANCH  10  28
ATOM     28  O   UNL     1     129.811 119.952 125.440  0.00  0.00    -0.345 OA
BRANCH  28  30
ATOM     29  O   UNL     1     131.139 118.084 124.654  0.00  0.00    -0.343 OA
ATOM     30  C   UNL     1     131.109 119.355 125.302  0.00  0.00    +0.282 C 
ATOM     31  C   UNL     1     131.997 119.413 126.560  0.00  0.00    +0.205 C 
ATOM     32  C   UNL     1     131.672 118.271 127.529  0.00  0.00    +0.179 C 
ATOM     33  C   UNL     1     130.869 116.928 125.443  0.00  0.00    +0.150 C 
ATOM     34  C   UNL     1     131.526 116.895 126.847  0.00  0.00    +0.177 C 
ATOM     35  C   UNL     1     131.307 115.715 124.624  0.00  0.00    +0.041 C 
BRANCH  31  36
ATOM     36  O   UNL     1     133.422 119.516 126.294  0.00  0.00    -0.372 OA
ATOM     37  C   UNL     1     133.864 120.354 125.237  0.00  0.00    +0.194 C 
ENDBRANCH  31  36
BRANCH  32  38
ATOM     38  O   UNL     1     132.667 118.224 128.571  0.00  0.00    -0.386 OA
ATOM     39  H   UNL     1     133.146 117.377 128.467  0.00  0.00    +0.210 HD
ENDBRANCH  32  38
BRANCH  34  40
ATOM     40  O   UNL     1     130.941 115.912 127.731  0.00  0.00    -0.375 OA
ATOM     41  C   UNL     1     129.605 116.123 128.161  0.00  0.00    +0.194 C 
ENDBRANCH  34  40
ENDBRANCH  28  30
ENDBRANCH  10  28
BRANCH  20  42
ATOM     42  O   UNL     1     129.199 129.341 126.816  0.00  0.00    -0.347 OA
BRANCH  42  44
ATOM     43  O   UNL     1     130.897 130.858 127.563  0.00  0.00    -0.347 OA
ATOM     44  C   UNL     1     130.538 129.502 127.329  0.00  0.00    +0.251 C 
ATOM     45  C   UNL     1     131.496 128.600 126.558  0.00  0.00    +0.063 C 
ATOM     46  C   UNL     1     132.383 129.342 125.589  0.00  0.00    +0.026 C 
ATOM     47  C   UNL     1     133.020 130.602 126.180  0.00  0.00    +0.085 C 
ATOM     48  C   UNL     1     131.973 131.502 126.880  0.00  0.00    +0.135 C 
ATOM     49  C   UNL     1     131.484 132.611 125.936  0.00  0.00    +0.039 C 
BRANCH  47  50
ATOM     50  N   UNL     1     134.243 130.314 126.979  0.00  0.00    -0.303 NA
ATOM     51  C   UNL     1     135.394 130.109 126.084  0.00  0.00    +0.105 C 
ATOM     52  C   UNL     1     134.597 131.326 127.976  0.00  0.00    +0.105 C 
ENDBRANCH  47  50
ENDBRANCH  42  44
ENDBRANCH  20  42
TORSDOF 9
ENDMDL
MODEL 8
REMARK VINA RESULT:      -8.2     32.493     36.269
REMARK  Name = 
REMARK  17 active torsions:
REMARK  status: ('A' for Active; 'I' for Inactive)
REMARK    1  A    between atoms: O_1  and  C_18
REMARK    2  A    between atoms: O_1  and  C_26
REMARK    3  A    between atoms: O_5  and  C_30
REMARK    4  A    between atoms: O_5  and  C_40
REMARK    5  A    between atoms: O_6  and  C_29
REMARK    6  A    between atoms: O_6  and  C_43
REMARK    7  A    between atoms: O_8  and  C_31
REMARK    8  A    between atoms: O_9  and  C_34
REMARK    9  A    between atoms: O_9  and  C_48
REMARK   10  A    between atoms: N_11  and  C_45
REMARK   11  A    between atoms: N_11  and  C_50
REMARK   12  A    between atoms: N_11  and  C_51
REMARK   13  A    between atoms: C_27  and  C_33
REMARK   14  A    between atoms: C_32  and  C_39
REMARK   15  A    between atoms: C_36  and  C_41
REMARK   16  A    between atoms: C_41  and  C_47
REMARK   17  A    between atoms: C_46  and  C_49
REMARK                            x       y       z     vdW  Elec       q    Type
REMARK                         _______ _______ _______ _____ _____    ______ ____
ROOT
ATOM      1  O   UNL     1     119.048 112.675 129.157  0.00  0.00    -0.292 OA
ATOM      2  O   UNL     1     121.359 112.505 123.116  0.00  0.00    -0.461 OA
ATOM      3  O   UNL     1     119.492 113.761 122.931  0.00  0.00    -0.251 OA
ATOM      4  C   UNL     1     116.492 115.718 126.308  0.00  0.00    +0.006 C 
ATOM      5  C   UNL     1     117.478 114.620 125.952  0.00  0.00    +0.023 C 
ATOM      6  C   UNL     1     116.253 115.702 127.802  0.00  0.00    +0.018 C 
ATOM      7  C   UNL     1     118.869 115.253 126.261  0.00  0.00    +0.027 C 
ATOM      8  C   UNL     1     115.175 115.789 125.573  0.00  0.00    +0.036 C 
ATOM      9  C   UNL     1     114.982 116.546 127.904  0.00  0.00    +0.039 C 
ATOM     10  C   UNL     1     114.164 116.089 126.671  0.00  0.00    +0.122 C 
ATOM     11  C   UNL     1     119.706 113.976 125.941  0.00  0.00    +0.040 C 
ATOM     12  C   UNL     1     117.709 113.291 126.774  0.00  0.00    -0.015 C 
ATOM     13  C   UNL     1     117.605 116.058 128.406  0.00  0.00    -0.027 C 
ATOM     14  C   UNL     1     118.780 115.850 127.733  0.00  0.00    -0.026 C 
ATOM     15  C   UNL     1     119.046 113.000 126.856  0.00  0.00    -0.004 C 
ATOM     16  C   UNL     1     120.896 114.067 124.945  0.00  0.00    +0.129 C 
ATOM     17  C   UNL     1     119.578 112.335 128.091  0.00  0.00    +0.164 C 
ATOM     18  C   UNL     1     120.748 111.341 128.146  0.00  0.00    +0.086 C 
ATOM     19  C   UNL     1     120.507 113.459 123.567  0.00  0.00    +0.308 C 
ATOM     20  C   UNL     1     120.687 110.041 127.327  0.00  0.00    +0.132 C 
ATOM     21  C   UNL     1     122.115 111.980 128.362  0.00  0.00    +0.018 C 
ATOM     22  C   UNL     1     121.894 109.619 126.447  0.00  0.00    +0.032 C 
ATOM     23  C   UNL     1     120.884 111.152 123.334  0.00  0.00    +0.176 C 
ATOM     24  C   UNL     1     121.620 109.330 124.968  0.00  0.00    +0.006 C 
ATOM     25  C   UNL     1     122.034 110.519 124.119  0.00  0.00    +0.045 C 
ENDROOT
BRANCH  23  26
ATOM     26  C   UNL     1     120.649 110.417 121.995  0.00  0.00    +0.041 C 
ATOM     27  C   UNL     1     119.316 110.767 121.338  0.00  0.00    +0.007 C 
ENDBRANCH  23  26
BRANCH  10  28
ATOM     28  O   UNL     1     113.214 117.064 126.303  0.00  0.00    -0.345 OA
BRANCH  28  30
ATOM     29  O   UNL     1     111.467 117.586 124.707  0.00  0.00    -0.343 OA
ATOM     30  C   UNL     1     111.985 116.673 125.674  0.00  0.00    +0.282 C 
ATOM     31  C   UNL     1     110.904 116.123 126.624  0.00  0.00    +0.205 C 
ATOM     32  C   UNL     1     110.105 117.254 127.279  0.00  0.00    +0.179 C 
ATOM     33  C   UNL     1     110.688 118.683 125.177  0.00  0.00    +0.150 C 
ATOM     34  C   UNL     1     109.665 118.360 126.297  0.00  0.00    +0.177 C 
ATOM     35  C   UNL     1     109.976 119.279 123.966  0.00  0.00    +0.041 C 
BRANCH  31  36
ATOM     36  O   UNL     1     110.041 115.109 126.042  0.00  0.00    -0.372 OA
ATOM     37  C   UNL     1     110.561 114.267 125.025  0.00  0.00    +0.194 C 
ENDBRANCH  31  36
BRANCH  32  38
ATOM     38  O   UNL     1     108.968 116.703 127.973  0.00  0.00    -0.386 OA
ATOM     39  H   UNL     1     108.769 117.308 128.716  0.00  0.00    +0.210 HD
ENDBRANCH  32  38
BRANCH  34  40
ATOM     40  O   UNL     1     109.178 119.533 126.985  0.00  0.00    -0.375 OA
ATOM     41  C   UNL     1     110.120 120.315 127.704  0.00  0.00    +0.194 C 
ENDBRANCH  34  40
ENDBRANCH  28  30
ENDBRANCH  10  28
BRANCH  20  42
ATOM     42  O   UNL     1     119.436 109.884 126.692  0.00  0.00    -0.347 OA
BRANCH  42  44
ATOM     43  O   UNL     1     119.160 107.701 127.640  0.00  0.00    -0.347 OA
ATOM     44  C   UNL     1     118.550 108.951 127.344  0.00  0.00    +0.251 C 
ATOM     45  C   UNL     1     117.188 108.972 126.660  0.00  0.00    +0.063 C 
ATOM     46  C   UNL     1     116.919 107.759 125.804  0.00  0.00    +0.026 C 
ATOM     47  C   UNL     1     117.279 106.435 126.482  0.00  0.00    +0.085 C 
ATOM     48  C   UNL     1     118.704 106.467 127.086  0.00  0.00    +0.135 C 
ATOM     49  C   UNL     1     119.725 105.851 126.117  0.00  0.00    +0.039 C 
BRANCH  47  50
ATOM     50  N   UNL     1     116.214 105.943 127.398  0.00  0.00    -0.303 NA
ATOM     51  C   UNL     1     115.025 105.548 126.625  0.00  0.00    +0.105 C 
ATOM     52  C   UNL     1     116.597 104.833 128.272  0.00  0.00    +0.105 C 
ENDBRANCH  47  50
ENDBRANCH  42  44
ENDBRANCH  20  42
TORSDOF 9
ENDMDL
MODEL 9
REMARK VINA RESULT:      -8.2     29.053     33.127
REMARK  Name = 
REMARK  17 active torsions:
REMARK  status: ('A' for Active; 'I' for Inactive)
REMARK    1  A    between atoms: O_1  and  C_18
REMARK    2  A    between atoms: O_1  and  C_26
REMARK    3  A    between atoms: O_5  and  C_30
REMARK    4  A    between atoms: O_5  and  C_40
REMARK    5  A    between atoms: O_6  and  C_29
REMARK    6  A    between atoms: O_6  and  C_43
REMARK    7  A    between atoms: O_8  and  C_31
REMARK    8  A    between atoms: O_9  and  C_34
REMARK    9  A    between atoms: O_9  and  C_48
REMARK   10  A    between atoms: N_11  and  C_45
REMARK   11  A    between atoms: N_11  and  C_50
REMARK   12  A    between atoms: N_11  and  C_51
REMARK   13  A    between atoms: C_27  and  C_33
REMARK   14  A    between atoms: C_32  and  C_39
REMARK   15  A    between atoms: C_36  and  C_41
REMARK   16  A    between atoms: C_41  and  C_47
REMARK   17  A    between atoms: C_46  and  C_49
REMARK                            x       y       z     vdW  Elec       q    Type
REMARK                         _______ _______ _______ _____ _____    ______ ____
ROOT
ATOM      1  O   UNL     1     128.177 124.178 128.379  0.00  0.00    -0.292 OA
ATOM      2  O   UNL     1     126.966 124.745 122.049  0.00  0.00    -0.461 OA
ATOM      3  O   UNL     1     128.448 123.046 122.152  0.00  0.00    -0.251 OA
ATOM      4  C   UNL     1     130.272 120.492 125.944  0.00  0.00    +0.006 C 
ATOM      5  C   UNL     1     129.672 121.794 125.446  0.00  0.00    +0.023 C 
ATOM      6  C   UNL     1     130.269 120.492 127.457  0.00  0.00    +0.018 C 
ATOM      7  C   UNL     1     128.135 121.550 125.523  0.00  0.00    +0.027 C 
ATOM      8  C   UNL     1     131.624 120.061 125.428  0.00  0.00    +0.036 C 
ATOM      9  C   UNL     1     131.246 119.354 127.752  0.00  0.00    +0.039 C 
ATOM     10  C   UNL     1     132.337 119.546 126.670  0.00  0.00    +0.122 C 
ATOM     11  C   UNL     1     127.717 122.989 125.087  0.00  0.00    +0.040 C 
ATOM     12  C   UNL     1     129.667 123.163 126.234  0.00  0.00    -0.015 C 
ATOM     13  C   UNL     1     128.794 120.516 127.834  0.00  0.00    -0.027 C 
ATOM     14  C   UNL     1     127.834 120.997 126.984  0.00  0.00    -0.026 C 
ATOM     15  C   UNL     1     128.455 123.791 126.105  0.00  0.00    -0.004 C 
ATOM     16  C   UNL     1     126.716 123.175 123.912  0.00  0.00    +0.129 C 
ATOM     17  C   UNL     1     127.927 124.609 127.246  0.00  0.00    +0.164 C 
ATOM     18  C   UNL     1     127.061 125.871 127.124  0.00  0.00    +0.086 C 
ATOM     19  C   UNL     1     127.460 123.619 122.621  0.00  0.00    +0.308 C 
ATOM     20  C   UNL     1     127.584 127.086 126.338  0.00  0.00    +0.132 C 
ATOM     21  C   UNL     1     125.558 125.613 127.112  0.00  0.00    +0.018 C 
ATOM     22  C   UNL     1     126.681 127.775 125.282  0.00  0.00    +0.032 C 
ATOM     23  C   UNL     1     127.734 125.937 122.354  0.00  0.00    +0.176 C 
ATOM     24  C   UNL     1     127.249 127.937 123.868  0.00  0.00    +0.006 C 
ATOM     25  C   UNL     1     126.679 126.869 122.952  0.00  0.00    +0.045 C 
ENDROOT
BRANCH  23  26
ATOM     26  C   UNL     1     128.358 126.544 121.077  0.00  0.00    +0.041 C 
ATOM     27  C   UNL     1     127.814 125.932 119.788  0.00  0.00    +0.007 C 
ENDBRANCH  23  26
BRANCH  10  28
ATOM     28  O   UNL     1     133.048 118.348 126.449  0.00  0.00    -0.345 OA
BRANCH  28  30
ATOM     29  O   UNL     1     131.892 116.562 125.289  0.00  0.00    -0.343 OA
ATOM     30  C   UNL     1     132.859 117.611 125.233  0.00  0.00    +0.282 C 
ATOM     31  C   UNL     1     134.153 117.199 124.504  0.00  0.00    +0.205 C 
ATOM     32  C   UNL     1     134.741 115.912 125.089  0.00  0.00    +0.179 C 
ATOM     33  C   UNL     1     132.308 115.298 125.800  0.00  0.00    +0.150 C 
ATOM     34  C   UNL     1     133.699 114.799 125.328  0.00  0.00    +0.177 C 
ATOM     35  C   UNL     1     131.227 114.287 125.426  0.00  0.00    +0.041 C 
BRANCH  31  36
ATOM     36  O   UNL     1     134.044 117.143 123.056  0.00  0.00    -0.372 OA
ATOM     37  C   UNL     1     134.641 118.173 122.282  0.00  0.00    +0.194 C 
ENDBRANCH  31  36
BRANCH  32  38
ATOM     38  O   UNL     1     135.808 115.440 124.242  0.00  0.00    -0.386 OA
ATOM     39  H   UNL     1     136.054 116.183 123.655  0.00  0.00    +0.210 HD
ENDBRANCH  32  38
BRANCH  34  40
ATOM     40  O   UNL     1     134.228 113.726 126.138  0.00  0.00    -0.375 OA
ATOM     41  C   UNL     1     134.576 114.023 127.482  0.00  0.00    +0.194 C 
ENDBRANCH  34  40
ENDBRANCH  28  30
ENDBRANCH  10  28
BRANCH  20  42
ATOM     42  O   UNL     1     128.916 126.895 125.912  0.00  0.00    -0.347 OA
BRANCH  42  44
ATOM     43  O   UNL     1     129.299 128.727 127.408  0.00  0.00    -0.347 OA
ATOM     44  C   UNL     1     129.844 127.887 126.399  0.00  0.00    +0.251 C 
ATOM     45  C   UNL     1     130.586 128.517 125.226  0.00  0.00    +0.063 C 
ATOM     46  C   UNL     1     130.131 129.920 124.901  0.00  0.00    +0.026 C 
ATOM     47  C   UNL     1     129.988 130.819 126.130  0.00  0.00    +0.085 C 
ATOM     48  C   UNL     1     129.161 130.140 127.248  0.00  0.00    +0.135 C 
ATOM     49  C   UNL     1     127.690 130.578 127.185  0.00  0.00    +0.039 C 
BRANCH  47  50
ATOM     50  N   UNL     1     131.282 131.410 126.571  0.00  0.00    -0.303 NA
ATOM     51  C   UNL     1     131.370 132.814 126.137  0.00  0.00    +0.105 C 
ATOM     52  C   UNL     1     131.547 131.345 128.010  0.00  0.00    +0.105 C 
ENDBRANCH  47  50
ENDBRANCH  42  44
ENDBRANCH  20  42
TORSDOF 9
ENDMDL
MODEL 10
REMARK VINA RESULT:      -8.2     16.853     21.377
REMARK  Name = 
REMARK  17 active torsions:
REMARK  status: ('A' for Active; 'I' for Inactive)
REMARK    1  A    between atoms: O_1  and  C_18
REMARK    2  A    between atoms: O_1  and  C_26
REMARK    3  A    between atoms: O_5  and  C_30
REMARK    4  A    between atoms: O_5  and  C_40
REMARK    5  A    between atoms: O_6  and  C_29
REMARK    6  A    between atoms: O_6  and  C_43
REMARK    7  A    between atoms: O_8  and  C_31
REMARK    8  A    between atoms: O_9  and  C_34
REMARK    9  A    between atoms: O_9  and  C_48
REMARK   10  A    between atoms: N_11  and  C_45
REMARK   11  A    between atoms: N_11  and  C_50
REMARK   12  A    between atoms: N_11  and  C_51
REMARK   13  A    between atoms: C_27  and  C_33
REMARK   14  A    between atoms: C_32  and  C_39
REMARK   15  A    between atoms: C_36  and  C_41
REMARK   16  A    between atoms: C_41  and  C_47
REMARK   17  A    between atoms: C_46  and  C_49
REMARK                            x       y       z     vdW  Elec       q    Type
REMARK                         _______ _______ _______ _____ _____    ______ ____
ROOT
ATOM      1  O   UNL     1     118.517 113.135 155.759  0.00  0.00    -0.292 OA
ATOM      2  O   UNL     1     114.704 117.831 153.463  0.00  0.00    -0.461 OA
ATOM      3  O   UNL     1     113.252 116.398 154.430  0.00  0.00    -0.251 OA
ATOM      4  C   UNL     1     113.931 112.471 157.319  0.00  0.00    +0.006 C 
ATOM      5  C   UNL     1     114.488 113.376 156.236  0.00  0.00    +0.023 C 
ATOM      6  C   UNL     1     115.045 111.599 157.856  0.00  0.00    +0.018 C 
ATOM      7  C   UNL     1     115.135 114.552 157.028  0.00  0.00    +0.027 C 
ATOM      8  C   UNL     1     112.713 111.630 157.020  0.00  0.00    +0.036 C 
ATOM      9  C   UNL     1     114.246 110.522 158.589  0.00  0.00    +0.039 C 
ATOM     10  C   UNL     1     113.041 110.283 157.646  0.00  0.00    +0.122 C 
ATOM     11  C   UNL     1     115.720 115.289 155.783  0.00  0.00    +0.040 C 
ATOM     12  C   UNL     1     115.748 113.064 155.336  0.00  0.00    -0.015 C 
ATOM     13  C   UNL     1     116.017 112.578 158.502  0.00  0.00    -0.027 C 
ATOM     14  C   UNL     1     116.074 113.896 158.132  0.00  0.00    -0.026 C 
ATOM     15  C   UNL     1     116.525 114.184 155.186  0.00  0.00    -0.004 C 
ATOM     16  C   UNL     1     115.412 116.797 155.568  0.00  0.00    +0.129 C 
ATOM     17  C   UNL     1     118.013 114.036 155.075  0.00  0.00    +0.164 C 
ATOM     18  C   UNL     1     118.950 114.936 154.256  0.00  0.00    +0.086 C 
ATOM     19  C   UNL     1     114.338 116.986 154.459  0.00  0.00    +0.308 C 
ATOM     20  C   UNL     1     118.732 115.090 152.741  0.00  0.00    +0.132 C 
ATOM     21  C   UNL     1     119.508 116.134 155.017  0.00  0.00    +0.018 C 
ATOM     22  C   UNL     1     118.714 116.502 152.098  0.00  0.00    +0.032 C 
ATOM     23  C   UNL     1     115.163 117.154 152.266  0.00  0.00    +0.176 C 
ATOM     24  C   UNL     1     117.492 116.875 151.252  0.00  0.00    +0.006 C 
ATOM     25  C   UNL     1     116.552 117.757 152.055  0.00  0.00    +0.045 C 
ENDROOT
BRANCH  23  26
ATOM     26  C   UNL     1     114.237 117.448 151.065  0.00  0.00    +0.041 C 
ATOM     27  C   UNL     1     112.982 116.577 151.041  0.00  0.00    +0.007 C 
ENDBRANCH  23  26
BRANCH  10  28
ATOM     28  O   UNL     1     111.957 109.713 158.345  0.00  0.00    -0.345 OA
BRANCH  28  30
ATOM     29  O   UNL     1     111.178 111.258 160.041  0.00  0.00    -0.343 OA
ATOM     30  C   UNL     1     110.897 110.547 158.836  0.00  0.00    +0.282 C 
ATOM     31  C   UNL     1     109.496 109.905 158.827  0.00  0.00    +0.205 C 
ATOM     32  C   UNL     1     109.269 109.037 160.069  0.00  0.00    +0.179 C 
ATOM     33  C   UNL     1     110.994 110.574 161.278  0.00  0.00    +0.150 C 
ATOM     34  C   UNL     1     109.717 109.700 161.388  0.00  0.00    +0.177 C 
ATOM     35  C   UNL     1     111.011 111.629 162.381  0.00  0.00    +0.041 C 
BRANCH  31  36
ATOM     36  O   UNL     1     108.402 110.835 158.602  0.00  0.00    -0.372 OA
ATOM     37  C   UNL     1     108.446 111.683 157.464  0.00  0.00    +0.194 C 
ENDBRANCH  31  36
BRANCH  32  38
ATOM     38  O   UNL     1     107.883 108.646 160.138  0.00  0.00    -0.386 OA
ATOM     39  H   UNL     1     107.474 109.177 160.849  0.00  0.00    +0.210 HD
ENDBRANCH  32  38
BRANCH  34  40
ATOM     40  O   UNL     1     109.760 108.758 162.482  0.00  0.00    -0.375 OA
ATOM     41  C   UNL     1     108.771 108.877 163.494  0.00  0.00    +0.194 C 
ENDBRANCH  34  40
ENDBRANCH  28  30
ENDBRANCH  10  28
BRANCH  20  42
ATOM     42  O   UNL     1     117.708 114.238 152.273  0.00  0.00    -0.347 OA
BRANCH  42  44
ATOM     43  O   UNL     1     119.443 112.695 151.682  0.00  0.00    -0.347 OA
ATOM     44  C   UNL     1     118.157 113.212 151.364  0.00  0.00    +0.251 C 
ATOM     45  C   UNL     1     117.855 113.628 149.929  0.00  0.00    +0.063 C 
ATOM     46  C   UNL     1     119.075 114.060 149.151  0.00  0.00    +0.026 C 
ATOM     47  C   UNL     1     120.270 113.119 149.310  0.00  0.00    +0.085 C 
ATOM     48  C   UNL     1     120.560 112.803 150.798  0.00  0.00    +0.135 C 
ATOM     49  C   UNL     1     121.655 113.727 151.352  0.00  0.00    +0.039 C 
BRANCH  47  50
ATOM     50  N   UNL     1     120.199 111.933 148.414  0.00  0.00    -0.303 NA
ATOM     51  C   UNL     1     118.857 111.330 148.480  0.00  0.00    +0.105 C 
ATOM     52  C   UNL     1     120.535 112.181 147.011  0.00  0.00    +0.105 C 
ENDBRANCH  47  50
ENDBRANCH  42  44
ENDBRANCH  20  42
TORSDOF 9
ENDMDL
MODEL 11
REMARK VINA RESULT:      -8.0    123.962    127.228
REMARK  Name = 
REMARK  17 active torsions:
REMARK  status: ('A' for Active; 'I' for Inactive)
REMARK    1  A    between atoms: O_1  and  C_18
REMARK    2  A    between atoms: O_1  and  C_26
REMARK    3  A    between atoms: O_5  and  C_30
REMARK    4  A    between atoms: O_5  and  C_40
REMARK    5  A    between atoms: O_6  and  C_29
REMARK    6  A    between atoms: O_6  and  C_43
REMARK    7  A    between atoms: O_8  and  C_31
REMARK    8  A    between atoms: O_9  and  C_34
REMARK    9  A    between atoms: O_9  and  C_48
REMARK   10  A    between atoms: N_11  and  C_45
REMARK   11  A    between atoms: N_11  and  C_50
REMARK   12  A    between atoms: N_11  and  C_51
REMARK   13  A    between atoms: C_27  and  C_33
REMARK   14  A    between atoms: C_32  and  C_39
REMARK   15  A    between atoms: C_36  and  C_41
REMARK   16  A    between atoms: C_41  and  C_47
REMARK   17  A    between atoms: C_46  and  C_49
REMARK                            x       y       z     vdW  Elec       q    Type
REMARK                         _______ _______ _______ _____ _____    ______ ____
ROOT
ATOM      1  O   UNL     1     110.254 131.023  30.815  0.00  0.00    -0.292 OA
ATOM      2  O   UNL     1     107.149 136.698  30.954  0.00  0.00    -0.461 OA
ATOM      3  O   UNL     1     105.484 135.191  30.719  0.00  0.00    -0.251 OA
ATOM      4  C   UNL     1     105.425 130.277  31.000  0.00  0.00    +0.006 C 
ATOM      5  C   UNL     1     106.223 131.534  30.706  0.00  0.00    +0.023 C 
ATOM      6  C   UNL     1     106.376 129.106  31.128  0.00  0.00    +0.018 C 
ATOM      7  C   UNL     1     106.726 131.993  32.109  0.00  0.00    +0.027 C 
ATOM      8  C   UNL     1     104.271 129.911  30.097  0.00  0.00    +0.036 C 
ATOM      9  C   UNL     1     105.408 127.929  31.002  0.00  0.00    +0.039 C 
ATOM     10  C   UNL     1     104.420 128.408  29.911  0.00  0.00    +0.122 C 
ATOM     11  C   UNL     1     107.580 133.193  31.594  0.00  0.00    +0.040 C 
ATOM     12  C   UNL     1     107.633 131.582  29.996  0.00  0.00    -0.015 C 
ATOM     13  C   UNL     1     107.220 129.435  32.352  0.00  0.00    -0.027 C 
ATOM     14  C   UNL     1     107.393 130.721  32.792  0.00  0.00    -0.026 C 
ATOM     15  C   UNL     1     108.458 132.484  30.618  0.00  0.00    -0.004 C 
ATOM     16  C   UNL     1     107.370 134.605  32.208  0.00  0.00    +0.129 C 
ATOM     17  C   UNL     1     109.931 132.210  30.679  0.00  0.00    +0.164 C 
ATOM     18  C   UNL     1     111.045 133.267  30.658  0.00  0.00    +0.086 C 
ATOM     19  C   UNL     1     106.557 135.511  31.240  0.00  0.00    +0.308 C 
ATOM     20  C   UNL     1     111.153 134.242  29.473  0.00  0.00    +0.132 C 
ATOM     21  C   UNL     1     111.468 133.774  32.033  0.00  0.00    +0.018 C 
ATOM     22  C   UNL     1     111.313 135.764  29.730  0.00  0.00    +0.032 C 
ATOM     23  C   UNL     1     107.827 136.715  29.672  0.00  0.00    +0.176 C 
ATOM     24  C   UNL     1     110.307 136.702  29.056  0.00  0.00    +0.006 C 
ATOM     25  C   UNL     1     109.247 137.134  30.054  0.00  0.00    +0.045 C 
ENDROOT
BRANCH  23  26
ATOM     26  C   UNL     1     107.181 137.737  28.710  0.00  0.00    +0.041 C 
ATOM     27  C   UNL     1     106.225 137.100  27.704  0.00  0.00    +0.007 C 
ENDBRANCH  23  26
BRANCH  10  28
ATOM     28  O   UNL     1     103.197 127.711  29.994  0.00  0.00    -0.345 OA
BRANCH  28  30
ATOM     29  O   UNL     1     103.814 126.286  28.133  0.00  0.00    -0.343 OA
ATOM     30  C   UNL     1     102.770 126.872  28.911  0.00  0.00    +0.282 C 
ATOM     31  C   UNL     1     101.623 127.439  28.051  0.00  0.00    +0.205 C 
ATOM     32  C   UNL     1     102.147 128.402  26.982  0.00  0.00    +0.179 C 
ATOM     33  C   UNL     1     104.385 127.069  27.088  0.00  0.00    +0.150 C 
ATOM     34  C   UNL     1     103.387 127.883  26.224  0.00  0.00    +0.177 C 
ATOM     35  C   UNL     1     105.194 126.118  26.208  0.00  0.00    +0.041 C 
BRANCH  31  36
ATOM     36  O   UNL     1     100.727 126.438  27.496  0.00  0.00    -0.372 OA
ATOM     37  C   UNL     1     100.378 125.314  28.289  0.00  0.00    +0.194 C 
ENDBRANCH  31  36
BRANCH  32  38
ATOM     38  O   UNL     1     101.085 128.727  26.063  0.00  0.00    -0.386 OA
ATOM     39  H   UNL     1     100.510 127.937  26.002  0.00  0.00    +0.210 HD
ENDBRANCH  32  38
BRANCH  34  40
ATOM     40  O   UNL     1     104.019 128.921  25.442  0.00  0.00    -0.375 OA
ATOM     41  C   UNL     1     103.906 128.842  24.029  0.00  0.00    +0.194 C 
ENDBRANCH  34  40
ENDBRANCH  28  30
ENDBRANCH  10  28
BRANCH  20  42
ATOM     42  O   UNL     1     110.224 133.930  28.457  0.00  0.00    -0.347 OA
BRANCH  42  44
ATOM     43  O   UNL     1     111.201 131.978  27.469  0.00  0.00    -0.347 OA
ATOM     44  C   UNL     1     110.807 133.332  27.281  0.00  0.00    +0.251 C 
ATOM     45  C   UNL     1     111.784 134.309  26.636  0.00  0.00    +0.063 C 
ATOM     46  C   UNL     1     113.234 133.949  26.849  0.00  0.00    +0.026 C 
ATOM     47  C   UNL     1     113.543 132.471  26.600  0.00  0.00    +0.085 C 
ATOM     48  C   UNL     1     112.555 131.542  27.347  0.00  0.00    +0.135 C 
ATOM     49  C   UNL     1     113.143 131.082  28.689  0.00  0.00    +0.039 C 
BRANCH  47  50
ATOM     50  N   UNL     1     113.743 132.155  25.159  0.00  0.00    -0.303 NA
ATOM     51  C   UNL     1     114.857 132.950  24.617  0.00  0.00    +0.105 C 
ATOM     52  C   UNL     1     113.980 130.743  24.850  0.00  0.00    +0.105 C 
ENDBRANCH  47  50
ENDBRANCH  42  44
ENDBRANCH  20  42
TORSDOF 9
ENDMDL
MODEL 12
REMARK VINA RESULT:      -8.0     18.241     21.380
REMARK  Name = 
REMARK  17 active torsions:
REMARK  status: ('A' for Active; 'I' for Inactive)
REMARK    1  A    between atoms: O_1  and  C_18
REMARK    2  A    between atoms: O_1  and  C_26
REMARK    3  A    between atoms: O_5  and  C_30
REMARK    4  A    between atoms: O_5  and  C_40
REMARK    5  A    between atoms: O_6  and  C_29
REMARK    6  A    between atoms: O_6  and  C_43
REMARK    7  A    between atoms: O_8  and  C_31
REMARK    8  A    between atoms: O_9  and  C_34
REMARK    9  A    between atoms: O_9  and  C_48
REMARK   10  A    between atoms: N_11  and  C_45
REMARK   11  A    between atoms: N_11  and  C_50
REMARK   12  A    between atoms: N_11  and  C_51
REMARK   13  A    between atoms: C_27  and  C_33
REMARK   14  A    between atoms: C_32  and  C_39
REMARK   15  A    between atoms: C_36  and  C_41
REMARK   16  A    between atoms: C_41  and  C_47
REMARK   17  A    between atoms: C_46  and  C_49
REMARK                            x       y       z     vdW  Elec       q    Type
REMARK                         _______ _______ _______ _____ _____    ______ ____
ROOT
ATOM      1  O   UNL     1     120.866 113.671 161.210  0.00  0.00    -0.292 OA
ATOM      2  O   UNL     1     123.868 114.336 155.517  0.00  0.00    -0.461 OA
ATOM      3  O   UNL     1     121.778 113.708 154.941  0.00  0.00    -0.251 OA
ATOM      4  C   UNL     1     117.638 113.244 157.562  0.00  0.00    +0.006 C 
ATOM      5  C   UNL     1     119.155 113.225 157.550  0.00  0.00    +0.023 C 
ATOM      6  C   UNL     1     117.155 113.293 158.996  0.00  0.00    +0.018 C 
ATOM      7  C   UNL     1     119.548 114.725 157.715  0.00  0.00    +0.027 C 
ATOM      8  C   UNL     1     116.883 112.183 156.797  0.00  0.00    +0.036 C 
ATOM      9  C   UNL     1     115.689 112.894 158.825  0.00  0.00    +0.039 C 
ATOM     10  C   UNL     1     115.755 111.791 157.741  0.00  0.00    +0.122 C 
ATOM     11  C   UNL     1     121.088 114.486 157.782  0.00  0.00    +0.040 C 
ATOM     12  C   UNL     1     120.076 112.679 158.711  0.00  0.00    -0.015 C 
ATOM     13  C   UNL     1     117.656 114.633 159.519  0.00  0.00    -0.027 C 
ATOM     14  C   UNL     1     118.730 115.275 158.964  0.00  0.00    -0.026 C 
ATOM     15  C   UNL     1     121.148 113.510 158.909  0.00  0.00    -0.004 C 
ATOM     16  C   UNL     1     122.031 115.279 156.834  0.00  0.00    +0.129 C 
ATOM     17  C   UNL     1     121.699 113.681 160.294  0.00  0.00    +0.164 C 
ATOM     18  C   UNL     1     123.170 113.933 160.654  0.00  0.00    +0.086 C 
ATOM     19  C   UNL     1     122.521 114.378 155.665  0.00  0.00    +0.308 C 
ATOM     20  C   UNL     1     124.247 112.924 160.221  0.00  0.00    +0.132 C 
ATOM     21  C   UNL     1     123.565 115.403 160.727  0.00  0.00    +0.018 C 
ATOM     22  C   UNL     1     125.543 113.420 159.526  0.00  0.00    +0.032 C 
ATOM     23  C   UNL     1     124.477 113.147 156.084  0.00  0.00    +0.176 C 
ATOM     24  C   UNL     1     125.902 112.794 158.175  0.00  0.00    +0.006 C 
ATOM     25  C   UNL     1     125.513 113.731 157.046  0.00  0.00    +0.045 C 
ENDROOT
BRANCH  23  26
ATOM     26  C   UNL     1     125.151 112.287 154.991  0.00  0.00    +0.041 C 
ATOM     27  C   UNL     1     125.006 112.870 153.587  0.00  0.00    +0.007 C 
ENDBRANCH  23  26
BRANCH  10  28
ATOM     28  O   UNL     1     114.511 111.642 157.092  0.00  0.00    -0.345 OA
BRANCH  28  30
ATOM     29  O   UNL     1     113.048 109.716 157.232  0.00  0.00    -0.343 OA
ATOM     30  C   UNL     1     113.423 110.987 157.761  0.00  0.00    +0.282 C 
ATOM     31  C   UNL     1     112.215 111.885 158.087  0.00  0.00    +0.205 C 
ATOM     32  C   UNL     1     111.276 112.023 156.884  0.00  0.00    +0.179 C 
ATOM     33  C   UNL     1     112.163 109.693 156.115  0.00  0.00    +0.150 C 
ATOM     34  C   UNL     1     110.974 110.688 156.170  0.00  0.00    +0.177 C 
ATOM     35  C   UNL     1     111.650 108.262 155.979  0.00  0.00    +0.041 C 
BRANCH  31  36
ATOM     36  O   UNL     1     111.500 111.526 159.301  0.00  0.00    -0.372 OA
ATOM     37  C   UNL     1     112.185 111.581 160.542  0.00  0.00    +0.194 C 
ENDBRANCH  31  36
BRANCH  32  38
ATOM     38  O   UNL     1     110.056 112.672 157.294  0.00  0.00    -0.386 OA
ATOM     39  H   UNL     1     110.280 113.607 157.475  0.00  0.00    +0.210 HD
ENDBRANCH  32  38
BRANCH  34  40
ATOM     40  O   UNL     1     110.336 110.891 154.890  0.00  0.00    -0.375 OA
ATOM     41  C   UNL     1     108.935 110.672 154.810  0.00  0.00    +0.194 C 
ENDBRANCH  34  40
ENDBRANCH  28  30
ENDBRANCH  10  28
BRANCH  20  42
ATOM     42  O   UNL     1     123.678 111.783 159.616  0.00  0.00    -0.347 OA
BRANCH  42  44
ATOM     43  O   UNL     1     124.381 110.783 161.677  0.00  0.00    -0.347 OA
ATOM     44  C   UNL     1     123.739 110.588 160.423  0.00  0.00    +0.251 C 
ATOM     45  C   UNL     1     124.144 109.401 159.556  0.00  0.00    +0.063 C 
ATOM     46  C   UNL     1     125.565 108.943 159.776  0.00  0.00    +0.026 C 
ATOM     47  C   UNL     1     125.951 108.824 161.251  0.00  0.00    +0.085 C 
ATOM     48  C   UNL     1     125.576 110.096 162.050  0.00  0.00    +0.135 C 
ATOM     49  C   UNL     1     126.780 111.043 162.169  0.00  0.00    +0.039 C 
BRANCH  47  50
ATOM     50  N   UNL     1     125.511 107.540 161.864  0.00  0.00    -0.303 NA
ATOM     51  C   UNL     1     126.007 106.405 161.070  0.00  0.00    +0.105 C 
ATOM     52  C   UNL     1     125.900 107.342 163.262  0.00  0.00    +0.105 C 
ENDBRANCH  47  50
ENDBRANCH  42  44
ENDBRANCH  20  42
TORSDOF 9
ENDMDL
MODEL 13
REMARK VINA RESULT:      -8.0    106.758    110.684
REMARK  Name = 
REMARK  17 active torsions:
REMARK  status: ('A' for Active; 'I' for Inactive)
REMARK    1  A    between atoms: O_1  and  C_18
REMARK    2  A    between atoms: O_1  and  C_26
REMARK    3  A    between atoms: O_5  and  C_30
REMARK    4  A    between atoms: O_5  and  C_40
REMARK    5  A    between atoms: O_6  and  C_29
REMARK    6  A    between atoms: O_6  and  C_43
REMARK    7  A    between atoms: O_8  and  C_31
REMARK    8  A    between atoms: O_9  and  C_34
REMARK    9  A    between atoms: O_9  and  C_48
REMARK   10  A    between atoms: N_11  and  C_45
REMARK   11  A    between atoms: N_11  and  C_50
REMARK   12  A    between atoms: N_11  and  C_51
REMARK   13  A    between atoms: C_27  and  C_33
REMARK   14  A    between atoms: C_32  and  C_39
REMARK   15  A    between atoms: C_36  and  C_41
REMARK   16  A    between atoms: C_41  and  C_47
REMARK   17  A    between atoms: C_46  and  C_49
REMARK                            x       y       z     vdW  Elec       q    Type
REMARK                         _______ _______ _______ _____ _____    ______ ____
ROOT
ATOM      1  O   UNL     1     113.904 138.100  48.453  0.00  0.00    -0.292 OA
ATOM      2  O   UNL     1     119.285 136.812  45.099  0.00  0.00    -0.461 OA
ATOM      3  O   UNL     1     118.748 138.906  44.451  0.00  0.00    -0.251 OA
ATOM      4  C   UNL     1     115.428 142.126  46.136  0.00  0.00    +0.006 C 
ATOM      5  C   UNL     1     115.834 140.674  45.969  0.00  0.00    +0.023 C 
ATOM      6  C   UNL     1     114.283 142.210  47.121  0.00  0.00    +0.018 C 
ATOM      7  C   UNL     1     116.762 140.403  47.192  0.00  0.00    +0.027 C 
ATOM      8  C   UNL     1     115.116 142.948  44.907  0.00  0.00    +0.036 C 
ATOM      9  C   UNL     1     113.762 143.621  46.845  0.00  0.00    +0.039 C 
ATOM     10  C   UNL     1     113.877 143.737  45.305  0.00  0.00    +0.122 C 
ATOM     11  C   UNL     1     116.978 138.885  46.904  0.00  0.00    +0.040 C 
ATOM     12  C   UNL     1     114.892 139.426  46.191  0.00  0.00    -0.015 C 
ATOM     13  C   UNL     1     114.877 141.724  48.437  0.00  0.00    -0.027 C 
ATOM     14  C   UNL     1     115.976 140.908  48.480  0.00  0.00    -0.026 C 
ATOM     15  C   UNL     1     115.558 138.428  46.855  0.00  0.00    -0.004 C 
ATOM     16  C   UNL     1     118.422 138.315  46.830  0.00  0.00    +0.129 C 
ATOM     17  C   UNL     1     114.803 137.548  47.806  0.00  0.00    +0.164 C 
ATOM     18  C   UNL     1     115.095 136.066  48.086  0.00  0.00    +0.086 C 
ATOM     19  C   UNL     1     118.841 138.068  45.353  0.00  0.00    +0.308 C 
ATOM     20  C   UNL     1     115.067 135.049  46.933  0.00  0.00    +0.132 C 
ATOM     21  C   UNL     1     116.072 135.816  49.229  0.00  0.00    +0.018 C 
ATOM     22  C   UNL     1     116.235 134.043  46.756  0.00  0.00    +0.032 C 
ATOM     23  C   UNL     1     118.289 135.957  44.481  0.00  0.00    +0.176 C 
ATOM     24  C   UNL     1     116.924 133.997  45.389  0.00  0.00    +0.006 C 
ATOM     25  C   UNL     1     118.233 134.766  45.438  0.00  0.00    +0.045 C 
ENDROOT
BRANCH  23  26
ATOM     26  C   UNL     1     118.727 135.518  43.066  0.00  0.00    +0.041 C 
ATOM     27  C   UNL     1     117.572 135.444  42.070  0.00  0.00    +0.007 C 
ENDBRANCH  23  26
BRANCH  10  28
ATOM     28  O   UNL     1     113.922 145.088  44.901  0.00  0.00    -0.345 OA
BRANCH  28  30
ATOM     29  O   UNL     1     115.915 146.208  45.704  0.00  0.00    -0.343 OA
ATOM     30  C   UNL     1     115.179 145.705  44.589  0.00  0.00    +0.282 C 
ATOM     31  C   UNL     1     115.156 146.677  43.393  0.00  0.00    +0.205 C 
ATOM     32  C   UNL     1     114.675 148.070  43.812  0.00  0.00    +0.179 C 
ATOM     33  C   UNL     1     115.583 147.506  46.191  0.00  0.00    +0.150 C 
ATOM     34  C   UNL     1     115.321 148.590  45.113  0.00  0.00    +0.177 C 
ATOM     35  C   UNL     1     116.717 147.941  47.116  0.00  0.00    +0.041 C 
BRANCH  31  36
ATOM     36  O   UNL     1     116.390 146.731  42.628  0.00  0.00    -0.372 OA
ATOM     37  C   UNL     1     116.904 145.531  42.070  0.00  0.00    +0.194 C 
ENDBRANCH  31  36
BRANCH  32  38
ATOM     38  O   UNL     1     114.885 148.999  42.729  0.00  0.00    -0.386 OA
ATOM     39  H   UNL     1     115.320 148.501  42.008  0.00  0.00    +0.210 HD
ENDBRANCH  32  38
BRANCH  34  40
ATOM     40  O   UNL     1     114.642 149.758  45.627  0.00  0.00    -0.375 OA
ATOM     41  C   UNL     1     115.335 150.996  45.585  0.00  0.00    +0.194 C 
ENDBRANCH  34  40
ENDBRANCH  28  30
ENDBRANCH  10  28
BRANCH  20  42
ATOM     42  O   UNL     1     114.638 135.642  45.726  0.00  0.00    -0.347 OA
BRANCH  42  44
ATOM     43  O   UNL     1     112.520 134.745  46.398  0.00  0.00    -0.347 OA
ATOM     44  C   UNL     1     113.207 135.651  45.544  0.00  0.00    +0.251 C 
ATOM     45  C   UNL     1     112.878 135.667  44.056  0.00  0.00    +0.063 C 
ATOM     46  C   UNL     1     112.369 134.347  43.531  0.00  0.00    +0.026 C 
ATOM     47  C   UNL     1     111.303 133.702  44.419  0.00  0.00    +0.085 C 
ATOM     48  C   UNL     1     111.741 133.655  45.903  0.00  0.00    +0.135 C 
ATOM     49  C   UNL     1     112.359 132.292  46.249  0.00  0.00    +0.039 C 
BRANCH  47  50
ATOM     50  N   UNL     1     109.939 134.250  44.179  0.00  0.00    -0.303 NA
ATOM     51  C   UNL     1     109.342 134.691  45.450  0.00  0.00    +0.105 C 
ATOM     52  C   UNL     1     109.861 135.349  43.216  0.00  0.00    +0.105 C 
ENDBRANCH  47  50
ENDBRANCH  42  44
ENDBRANCH  20  42
TORSDOF 9
ENDMDL
MODEL 14
REMARK VINA RESULT:      -7.9     14.540     18.989
REMARK  Name = 
REMARK  17 active torsions:
REMARK  status: ('A' for Active; 'I' for Inactive)
REMARK    1  A    between atoms: O_1  and  C_18
REMARK    2  A    between atoms: O_1  and  C_26
REMARK    3  A    between atoms: O_5  and  C_30
REMARK    4  A    between atoms: O_5  and  C_40
REMARK    5  A    between atoms: O_6  and  C_29
REMARK    6  A    between atoms: O_6  and  C_43
REMARK    7  A    between atoms: O_8  and  C_31
REMARK    8  A    between atoms: O_9  and  C_34
REMARK    9  A    between atoms: O_9  and  C_48
REMARK   10  A    between atoms: N_11  and  C_45
REMARK   11  A    between atoms: N_11  and  C_50
REMARK   12  A    between atoms: N_11  and  C_51
REMARK   13  A    between atoms: C_27  and  C_33
REMARK   14  A    between atoms: C_32  and  C_39
REMARK   15  A    between atoms: C_36  and  C_41
REMARK   16  A    between atoms: C_41  and  C_47
REMARK   17  A    between atoms: C_46  and  C_49
REMARK                            x       y       z     vdW  Elec       q    Type
REMARK                         _______ _______ _______ _____ _____    ______ ____
ROOT
ATOM      1  O   UNL     1     113.670 119.228 161.374  0.00  0.00    -0.292 OA
ATOM      2  O   UNL     1     115.589 116.618 155.773  0.00  0.00    -0.461 OA
ATOM      3  O   UNL     1     114.359 118.398 155.131  0.00  0.00    -0.251 OA
ATOM      4  C   UNL     1     112.442 122.161 157.660  0.00  0.00    +0.006 C 
ATOM      5  C   UNL     1     112.911 120.718 157.669  0.00  0.00    +0.023 C 
ATOM      6  C   UNL     1     112.250 122.629 159.086  0.00  0.00    +0.018 C 
ATOM      7  C   UNL     1     114.445 120.827 157.923  0.00  0.00    +0.027 C 
ATOM      8  C   UNL     1     111.240 122.538 156.826  0.00  0.00    +0.036 C 
ATOM      9  C   UNL     1     111.413 123.889 158.871  0.00  0.00    +0.039 C 
ATOM     10  C   UNL     1     110.453 123.477 157.728  0.00  0.00    +0.122 C 
ATOM     11  C   UNL     1     114.709 119.291 158.000  0.00  0.00    +0.040 C 
ATOM     12  C   UNL     1     112.623 119.666 158.811  0.00  0.00    -0.015 C 
ATOM     13  C   UNL     1     113.648 122.583 159.691  0.00  0.00    -0.027 C 
ATOM     14  C   UNL     1     114.631 121.774 159.188  0.00  0.00    -0.026 C 
ATOM     15  C   UNL     1     113.742 118.917 159.072  0.00  0.00    -0.004 C 
ATOM     16  C   UNL     1     115.816 118.656 157.112  0.00  0.00    +0.129 C 
ATOM     17  C   UNL     1     114.000 118.446 160.472  0.00  0.00    +0.164 C 
ATOM     18  C   UNL     1     114.689 117.132 160.868  0.00  0.00    +0.086 C 
ATOM     19  C   UNL     1     115.189 117.908 155.902  0.00  0.00    +0.308 C 
ATOM     20  C   UNL     1     114.105 115.789 160.396  0.00  0.00    +0.132 C 
ATOM     21  C   UNL     1     116.202 117.229 161.028  0.00  0.00    +0.018 C 
ATOM     22  C   UNL     1     115.030 114.724 159.749  0.00  0.00    +0.032 C 
ATOM     23  C   UNL     1     114.629 115.658 156.281  0.00  0.00    +0.176 C 
ATOM     24  C   UNL     1     114.631 114.187 158.371  0.00  0.00    +0.006 C 
ATOM     25  C   UNL     1     115.457 114.861 157.290  0.00  0.00    +0.045 C 
ENDROOT
BRANCH  23  26
ATOM     26  C   UNL     1     114.094 114.748 155.153  0.00  0.00    +0.041 C 
ATOM     27  C   UNL     1     115.128 114.461 154.066  0.00  0.00    +0.007 C 
ENDBRANCH  23  26
BRANCH  10  28
ATOM     28  O   UNL     1     109.951 124.609 157.054  0.00  0.00    -0.345 OA
BRANCH  28  30
ATOM     29  O   UNL     1     107.689 125.466 157.200  0.00  0.00    -0.343 OA
ATOM     30  C   UNL     1     109.023 125.486 157.709  0.00  0.00    +0.282 C 
ATOM     31  C   UNL     1     109.542 126.910 157.983  0.00  0.00    +0.205 C 
ATOM     32  C   UNL     1     109.388 127.810 156.753  0.00  0.00    +0.179 C 
ATOM     33  C   UNL     1     107.398 126.273 156.062  0.00  0.00    +0.150 C 
ATOM     34  C   UNL     1     108.013 127.697 156.063  0.00  0.00    +0.177 C 
ATOM     35  C   UNL     1     105.878 126.351 155.945  0.00  0.00    +0.041 C 
BRANCH  31  36
ATOM     36  O   UNL     1     109.012 127.531 159.186  0.00  0.00    -0.372 OA
ATOM     37  C   UNL     1     108.428 126.706 160.183  0.00  0.00    +0.194 C 
ENDBRANCH  31  36
BRANCH  32  38
ATOM     38  O   UNL     1     109.668 129.177 157.117  0.00  0.00    -0.386 OA
ATOM     39  H   UNL     1     110.641 129.262 157.171  0.00  0.00    +0.210 HD
ENDBRANCH  32  38
BRANCH  34  40
ATOM     40  O   UNL     1     108.005 128.326 154.762  0.00  0.00    -0.375 OA
ATOM     41  C   UNL     1     107.396 129.603 154.651  0.00  0.00    +0.194 C 
ENDBRANCH  34  40
ENDBRANCH  28  30
ENDBRANCH  10  28
BRANCH  20  42
ATOM     42  O   UNL     1     112.879 115.964 159.720  0.00  0.00    -0.347 OA
BRANCH  42  44
ATOM     43  O   UNL     1     112.044 114.933 161.715  0.00  0.00    -0.347 OA
ATOM     44  C   UNL     1     111.729 115.465 160.435  0.00  0.00    +0.251 C 
ATOM     45  C   UNL     1     110.846 114.659 159.490  0.00  0.00    +0.063 C 
ATOM     46  C   UNL     1     110.923 113.167 159.709  0.00  0.00    +0.026 C 
ATOM     47  C   UNL     1     110.835 112.757 161.180  0.00  0.00    +0.085 C 
ATOM     48  C   UNL     1     111.814 113.568 162.064  0.00  0.00    +0.135 C 
ATOM     49  C   UNL     1     113.123 112.794 162.285  0.00  0.00    +0.039 C 
BRANCH  47  50
ATOM     50  N   UNL     1     109.435 112.693 161.683  0.00  0.00    -0.303 NA
ATOM     51  C   UNL     1     108.627 111.818 160.816  0.00  0.00    +0.105 C 
ATOM     52  C   UNL     1     109.282 112.251 163.070  0.00  0.00    +0.105 C 
ENDBRANCH  47  50
ENDBRANCH  42  44
ENDBRANCH  20  42
TORSDOF 9
ENDMDL
MODEL 15
REMARK VINA RESULT:      -7.9    122.763    127.280
REMARK  Name = 
REMARK  17 active torsions:
REMARK  status: ('A' for Active; 'I' for Inactive)
REMARK    1  A    between atoms: O_1  and  C_18
REMARK    2  A    between atoms: O_1  and  C_26
REMARK    3  A    between atoms: O_5  and  C_30
REMARK    4  A    between atoms: O_5  and  C_40
REMARK    5  A    between atoms: O_6  and  C_29
REMARK    6  A    between atoms: O_6  and  C_43
REMARK    7  A    between atoms: O_8  and  C_31
REMARK    8  A    between atoms: O_9  and  C_34
REMARK    9  A    between atoms: O_9  and  C_48
REMARK   10  A    between atoms: N_11  and  C_45
REMARK   11  A    between atoms: N_11  and  C_50
REMARK   12  A    between atoms: N_11  and  C_51
REMARK   13  A    between atoms: C_27  and  C_33
REMARK   14  A    between atoms: C_32  and  C_39
REMARK   15  A    between atoms: C_36  and  C_41
REMARK   16  A    between atoms: C_41  and  C_47
REMARK   17  A    between atoms: C_46  and  C_49
REMARK                            x       y       z     vdW  Elec       q    Type
REMARK                         _______ _______ _______ _____ _____    ______ ____
ROOT
ATOM      1  O   UNL     1     109.383 130.741  32.466  0.00  0.00    -0.292 OA
ATOM      2  O   UNL     1     106.981 136.207  29.972  0.00  0.00    -0.461 OA
ATOM      3  O   UNL     1     105.601 134.611  29.171  0.00  0.00    -0.251 OA
ATOM      4  C   UNL     1     105.131 129.827  30.232  0.00  0.00    +0.006 C 
ATOM      5  C   UNL     1     106.033 131.046  30.183  0.00  0.00    +0.023 C 
ATOM      6  C   UNL     1     105.809 128.741  31.039  0.00  0.00    +0.018 C 
ATOM      7  C   UNL     1     105.758 131.769  31.537  0.00  0.00    +0.027 C 
ATOM      8  C   UNL     1     104.597 129.256  28.940  0.00  0.00    +0.036 C 
ATOM      9  C   UNL     1     104.984 127.519  30.635  0.00  0.00    +0.039 C 
ATOM     10  C   UNL     1     104.737 127.752  29.124  0.00  0.00    +0.122 C 
ATOM     11  C   UNL     1     106.820 132.895  31.343  0.00  0.00    +0.040 C 
ATOM     12  C   UNL     1     107.607 131.029  30.317  0.00  0.00    -0.015 C 
ATOM     13  C   UNL     1     105.910 129.319  32.444  0.00  0.00    -0.027 C 
ATOM     14  C   UNL     1     105.900 130.669  32.678  0.00  0.00    -0.026 C 
ATOM     15  C   UNL     1     108.037 132.063  31.109  0.00  0.00    -0.004 C 
ATOM     16  C   UNL     1     106.400 134.383  31.500  0.00  0.00    +0.129 C 
ATOM     17  C   UNL     1     109.245 131.870  31.976  0.00  0.00    +0.164 C 
ATOM     18  C   UNL     1     110.264 132.955  32.355  0.00  0.00    +0.086 C 
ATOM     19  C   UNL     1     106.262 135.065  30.109  0.00  0.00    +0.308 C 
ATOM     20  C   UNL     1     111.027 133.707  31.251  0.00  0.00    +0.132 C 
ATOM     21  C   UNL     1     109.938 133.716  33.635  0.00  0.00    +0.018 C 
ATOM     22  C   UNL     1     111.115 135.256  31.284  0.00  0.00    +0.032 C 
ATOM     23  C   UNL     1     108.227 136.027  29.252  0.00  0.00    +0.176 C 
ATOM     24  C   UNL     1     110.660 136.014  30.032  0.00  0.00    +0.006 C 
ATOM     25  C   UNL     1     109.262 136.569  30.238  0.00  0.00    +0.045 C 
ENDROOT
BRANCH  23  26
ATOM     26  C   UNL     1     108.234 136.832  27.933  0.00  0.00    +0.041 C 
ATOM     27  C   UNL     1     107.822 136.004  26.717  0.00  0.00    +0.007 C 
ENDBRANCH  23  26
BRANCH  10  28
ATOM     28  O   UNL     1     103.612 127.028  28.677  0.00  0.00    -0.345 OA
BRANCH  28  30
ATOM     29  O   UNL     1     102.389 125.874  26.932  0.00  0.00    -0.343 OA
ATOM     30  C   UNL     1     103.393 126.830  27.273  0.00  0.00    +0.282 C 
ATOM     31  C   UNL     1     104.669 126.695  26.420  0.00  0.00    +0.205 C 
ATOM     32  C   UNL     1     105.213 125.263  26.446  0.00  0.00    +0.179 C 
ATOM     33  C   UNL     1     102.762 124.499  26.902  0.00  0.00    +0.150 C 
ATOM     34  C   UNL     1     104.132 124.180  26.250  0.00  0.00    +0.177 C 
ATOM     35  C   UNL     1     101.644 123.748  26.182  0.00  0.00    +0.041 C 
BRANCH  31  36
ATOM     36  O   UNL     1     104.554 127.212  25.066  0.00  0.00    -0.372 OA
ATOM     37  C   UNL     1     104.923 128.560  24.813  0.00  0.00    +0.194 C 
ENDBRANCH  31  36
BRANCH  32  38
ATOM     38  O   UNL     1     106.260 125.126  25.464  0.00  0.00    -0.386 OA
ATOM     39  H   UNL     1     107.011 124.686  25.911  0.00  0.00    +0.210 HD
ENDBRANCH  32  38
BRANCH  34  40
ATOM     40  O   UNL     1     104.625 122.859  26.568  0.00  0.00    -0.375 OA
ATOM     41  C   UNL     1     105.439 122.719  27.722  0.00  0.00    +0.194 C 
ENDBRANCH  34  40
ENDBRANCH  28  30
ENDBRANCH  10  28
BRANCH  20  42
ATOM     42  O   UNL     1     110.747 133.179  29.973  0.00  0.00    -0.347 OA
BRANCH  42  44
ATOM     43  O   UNL     1     112.395 133.914  28.396  0.00  0.00    -0.347 OA
ATOM     44  C   UNL     1     111.917 132.842  29.199  0.00  0.00    +0.251 C 
ATOM     45  C   UNL     1     111.739 131.464  28.571  0.00  0.00    +0.063 C 
ATOM     46  C   UNL     1     111.462 131.501  27.088  0.00  0.00    +0.026 C 
ATOM     47  C   UNL     1     112.383 132.446  26.315  0.00  0.00    +0.085 C 
ATOM     48  C   UNL     1     112.453 133.847  26.971  0.00  0.00    +0.135 C 
ATOM     49  C   UNL     1     111.468 134.816  26.301  0.00  0.00    +0.039 C 
BRANCH  47  50
ATOM     50  N   UNL     1     113.701 131.835  25.988  0.00  0.00    -0.303 NA
ATOM     51  C   UNL     1     113.521 130.425  25.604  0.00  0.00    +0.105 C 
ATOM     52  C   UNL     1     114.469 132.512  24.941  0.00  0.00    +0.105 C 
ENDBRANCH  47  50
ENDBRANCH  42  44
ENDBRANCH  20  42
TORSDOF 9
ENDMDL
MODEL 16
REMARK VINA RESULT:      -7.7     36.507     44.155
REMARK  Name = 
REMARK  17 active torsions:
REMARK  status: ('A' for Active; 'I' for Inactive)
REMARK    1  A    between atoms: O_1  and  C_18
REMARK    2  A    between atoms: O_1  and  C_26
REMARK    3  A    between atoms: O_5  and  C_30
REMARK    4  A    between atoms: O_5  and  C_40
REMARK    5  A    between atoms: O_6  and  C_29
REMARK    6  A    between atoms: O_6  and  C_43
REMARK    7  A    between atoms: O_8  and  C_31
REMARK    8  A    between atoms: O_9  and  C_34
REMARK    9  A    between atoms: O_9  and  C_48
REMARK   10  A    between atoms: N_11  and  C_45
REMARK   11  A    between atoms: N_11  and  C_50
REMARK   12  A    between atoms: N_11  and  C_51
REMARK   13  A    between atoms: C_27  and  C_33
REMARK   14  A    between atoms: C_32  and  C_39
REMARK   15  A    between atoms: C_36  and  C_41
REMARK   16  A    between atoms: C_41  and  C_47
REMARK   17  A    between atoms: C_46  and  C_49
REMARK                            x       y       z     vdW  Elec       q    Type
REMARK                         _______ _______ _______ _____ _____    ______ ____
ROOT
ATOM      1  O   UNL     1     121.025 125.474 109.711  0.00  0.00    -0.292 OA
ATOM      2  O   UNL     1     117.191 120.270 110.016  0.00  0.00    -0.461 OA
ATOM      3  O   UNL     1     117.107 121.112 112.110  0.00  0.00    -0.251 OA
ATOM      4  C   UNL     1     118.729 125.346 114.026  0.00  0.00    +0.006 C 
ATOM      5  C   UNL     1     118.881 124.283 112.953  0.00  0.00    +0.023 C 
ATOM      6  C   UNL     1     119.555 126.555 113.645  0.00  0.00    +0.018 C 
ATOM      7  C   UNL     1     117.873 124.723 111.847  0.00  0.00    +0.027 C 
ATOM      8  C   UNL     1     118.985 124.975 115.467  0.00  0.00    +0.036 C 
ATOM      9  C   UNL     1     119.612 127.301 114.979  0.00  0.00    +0.039 C 
ATOM     10  C   UNL     1     119.777 126.157 116.009  0.00  0.00    +0.122 C 
ATOM     11  C   UNL     1     118.247 123.603 110.828  0.00  0.00    +0.040 C 
ATOM     12  C   UNL     1     120.125 124.119 111.993  0.00  0.00    -0.015 C 
ATOM     13  C   UNL     1     118.907 127.070 112.367  0.00  0.00    -0.027 C 
ATOM     14  C   UNL     1     118.165 126.259 111.550  0.00  0.00    -0.026 C 
ATOM     15  C   UNL     1     119.716 123.838 110.715  0.00  0.00    -0.004 C 
ATOM     16  C   UNL     1     117.127 122.710 110.223  0.00  0.00    +0.129 C 
ATOM     17  C   UNL     1     120.516 124.356 109.557  0.00  0.00    +0.164 C 
ATOM     18  C   UNL     1     120.693 123.658 108.200  0.00  0.00    +0.086 C 
ATOM     19  C   UNL     1     117.123 121.306 110.890  0.00  0.00    +0.308 C 
ATOM     20  C   UNL     1     121.295 122.244 108.139  0.00  0.00    +0.132 C 
ATOM     21  C   UNL     1     119.649 124.030 107.153  0.00  0.00    +0.018 C 
ATOM     22  C   UNL     1     120.598 121.138 107.304  0.00  0.00    +0.032 C 
ATOM     23  C   UNL     1     118.520 119.704 109.890  0.00  0.00    +0.176 C 
ATOM     24  C   UNL     1     120.255 119.827 108.018  0.00  0.00    +0.006 C 
ATOM     25  C   UNL     1     118.783 119.803 108.387  0.00  0.00    +0.045 C 
ENDROOT
BRANCH  23  26
ATOM     26  C   UNL     1     118.551 118.234 110.368  0.00  0.00    +0.041 C 
ATOM     27  C   UNL     1     117.170 117.679 110.708  0.00  0.00    +0.007 C 
ENDBRANCH  23  26
BRANCH  10  28
ATOM     28  O   UNL     1     119.360 126.567 117.292  0.00  0.00    -0.345 OA
BRANCH  28  30
ATOM     29  O   UNL     1     118.882 125.414 119.369  0.00  0.00    -0.343 OA
ATOM     30  C   UNL     1     119.867 125.906 118.461  0.00  0.00    +0.282 C 
ATOM     31  C   UNL     1     121.035 126.621 119.167  0.00  0.00    +0.205 C 
ATOM     32  C   UNL     1     120.534 127.717 120.112  0.00  0.00    +0.179 C 
ATOM     33  C   UNL     1     118.338 126.325 120.320  0.00  0.00    +0.150 C 
ATOM     34  C   UNL     1     119.350 127.282 121.002  0.00  0.00    +0.177 C 
ATOM     35  C   UNL     1     117.605 125.493 121.370  0.00  0.00    +0.041 C 
BRANCH  31  36
ATOM     36  O   UNL     1     121.990 125.735 119.812  0.00  0.00    -0.372 OA
ATOM     37  C   UNL     1     122.626 124.730 119.037  0.00  0.00    +0.194 C 
ENDBRANCH  31  36
BRANCH  32  38
ATOM     38  O   UNL     1     121.628 128.199 120.917  0.00  0.00    -0.386 OA
ATOM     39  H   UNL     1     122.290 128.572 120.300  0.00  0.00    +0.210 HD
ENDBRANCH  32  38
BRANCH  34  40
ATOM     40  O   UNL     1     118.724 128.407 121.659  0.00  0.00    -0.375 OA
ATOM     41  C   UNL     1     118.361 129.520 120.857  0.00  0.00    +0.194 C 
ENDBRANCH  34  40
ENDBRANCH  28  30
ENDBRANCH  10  28
BRANCH  20  42
ATOM     42  O   UNL     1     121.732 121.809 109.408  0.00  0.00    -0.347 OA
BRANCH  42  44
ATOM     43  O   UNL     1     123.605 120.336 109.160  0.00  0.00    -0.347 OA
ATOM     44  C   UNL     1     123.160 121.638 109.519  0.00  0.00    +0.251 C 
ATOM     45  C   UNL     1     123.654 122.261 110.821  0.00  0.00    +0.063 C 
ATOM     46  C   UNL     1     124.018 121.249 111.880  0.00  0.00    +0.026 C 
ATOM     47  C   UNL     1     124.870 120.091 111.357  0.00  0.00    +0.085 C 
ATOM     48  C   UNL     1     124.265 119.463 110.078  0.00  0.00    +0.135 C 
ATOM     49  C   UNL     1     123.417 118.229 110.421  0.00  0.00    +0.039 C 
BRANCH  47  50
ATOM     50  N   UNL     1     126.318 120.427 111.272  0.00  0.00    -0.303 NA
ATOM     51  C   UNL     1     126.717 121.234 112.437  0.00  0.00    +0.105 C 
ATOM     52  C   UNL     1     127.225 119.285 111.158  0.00  0.00    +0.105 C 
ENDBRANCH  47  50
ENDBRANCH  42  44
ENDBRANCH  20  42
TORSDOF 9
ENDMDL
MODEL 17
REMARK VINA RESULT:      -7.7     31.197     35.074
REMARK  Name = 
REMARK  17 active torsions:
REMARK  status: ('A' for Active; 'I' for Inactive)
REMARK    1  A    between atoms: O_1  and  C_18
REMARK    2  A    between atoms: O_1  and  C_26
REMARK    3  A    between atoms: O_5  and  C_30
REMARK    4  A    between atoms: O_5  and  C_40
REMARK    5  A    between atoms: O_6  and  C_29
REMARK    6  A    between atoms: O_6  and  C_43
REMARK    7  A    between atoms: O_8  and  C_31
REMARK    8  A    between atoms: O_9  and  C_34
REMARK    9  A    between atoms: O_9  and  C_48
REMARK   10  A    between atoms: N_11  and  C_45
REMARK   11  A    between atoms: N_11  and  C_50
REMARK   12  A    between atoms: N_11  and  C_51
REMARK   13  A    between atoms: C_27  and  C_33
REMARK   14  A    between atoms: C_32  and  C_39
REMARK   15  A    between atoms: C_36  and  C_41
REMARK   16  A    between atoms: C_41  and  C_47
REMARK   17  A    between atoms: C_46  and  C_49
REMARK                            x       y       z     vdW  Elec       q    Type
REMARK                         _______ _______ _______ _____ _____    ______ ____
ROOT
ATOM      1  O   UNL     1     128.449 116.138 129.199  0.00  0.00    -0.292 OA
ATOM      2  O   UNL     1     129.834 119.477 123.833  0.00  0.00    -0.461 OA
ATOM      3  O   UNL     1     128.159 118.109 123.186  0.00  0.00    -0.251 OA
ATOM      4  C   UNL     1     125.151 115.155 125.726  0.00  0.00    +0.006 C 
ATOM      5  C   UNL     1     126.499 115.848 125.645  0.00  0.00    +0.023 C 
ATOM      6  C   UNL     1     124.951 114.626 127.129  0.00  0.00    +0.018 C 
ATOM      7  C   UNL     1     126.224 117.268 126.227  0.00  0.00    +0.027 C 
ATOM      8  C   UNL     1     124.813 114.085 124.715  0.00  0.00    +0.036 C 
ATOM      9  C   UNL     1     123.798 113.645 126.910  0.00  0.00    +0.039 C 
ATOM     10  C   UNL     1     124.148 112.998 125.548  0.00  0.00    +0.122 C 
ATOM     11  C   UNL     1     127.701 117.765 126.156  0.00  0.00    +0.040 C 
ATOM     12  C   UNL     1     127.750 115.531 126.554  0.00  0.00    -0.015 C 
ATOM     13  C   UNL     1     124.902 115.873 128.002  0.00  0.00    -0.027 C 
ATOM     14  C   UNL     1     125.477 117.054 127.615  0.00  0.00    -0.026 C 
ATOM     15  C   UNL     1     128.372 116.690 126.943  0.00  0.00    -0.004 C 
ATOM     16  C   UNL     1     128.027 119.108 125.444  0.00  0.00    +0.129 C 
ATOM     17  C   UNL     1     129.023 116.756 128.293  0.00  0.00    +0.164 C 
ATOM     18  C   UNL     1     130.277 117.568 128.649  0.00  0.00    +0.086 C 
ATOM     19  C   UNL     1     128.649 118.851 124.042  0.00  0.00    +0.308 C 
ATOM     20  C   UNL     1     131.593 117.314 127.893  0.00  0.00    +0.132 C 
ATOM     21  C   UNL     1     130.001 118.987 129.134  0.00  0.00    +0.018 C 
ATOM     22  C   UNL     1     132.403 118.508 127.322  0.00  0.00    +0.032 C 
ATOM     23  C   UNL     1     130.986 118.612 123.999  0.00  0.00    +0.176 C 
ATOM     24  C   UNL     1     132.760 118.468 125.833  0.00  0.00    +0.006 C 
ATOM     25  C   UNL     1     131.814 119.358 125.046  0.00  0.00    +0.045 C 
ENDROOT
BRANCH  23  26
ATOM     26  C   UNL     1     131.767 118.456 122.674  0.00  0.00    +0.041 C 
ATOM     27  C   UNL     1     131.311 117.261 121.840  0.00  0.00    +0.007 C 
ENDBRANCH  23  26
BRANCH  10  28
ATOM     28  O   UNL     1     123.001 112.450 124.938  0.00  0.00    -0.345 OA
BRANCH  28  30
ATOM     29  O   UNL     1     123.037 110.046 124.639  0.00  0.00    -0.343 OA
ATOM     30  C   UNL     1     122.509 111.166 125.349  0.00  0.00    +0.282 C 
ATOM     31  C   UNL     1     120.986 111.082 125.562  0.00  0.00    +0.205 C 
ATOM     32  C   UNL     1     120.246 110.844 124.242  0.00  0.00    +0.179 C 
ATOM     33  C   UNL     1     122.431 109.699 123.396  0.00  0.00    +0.150 C 
ATOM     34  C   UNL     1     120.882 109.752 123.357  0.00  0.00    +0.177 C 
ATOM     35  C   UNL     1     122.923 108.300 123.032  0.00  0.00    +0.041 C 
BRANCH  31  36
ATOM     36  O   UNL     1     120.567 110.154 126.599  0.00  0.00    -0.372 OA
ATOM     37  C   UNL     1     119.888 110.659 127.739  0.00  0.00    +0.194 C 
ENDBRANCH  31  36
BRANCH  32  38
ATOM     38  O   UNL     1     118.862 110.544 124.511  0.00  0.00    -0.386 OA
ATOM     39  H   UNL     1     118.827 109.615 124.816  0.00  0.00    +0.210 HD
ENDBRANCH  32  38
BRANCH  34  40
ATOM     40  O   UNL     1     120.342 109.758 122.016  0.00  0.00    -0.375 OA
ATOM     41  C   UNL     1     120.202 111.013 121.368  0.00  0.00    +0.194 C 
ENDBRANCH  34  40
ENDBRANCH  28  30
ENDBRANCH  10  28
BRANCH  20  42
ATOM     42  O   UNL     1     131.481 116.224 127.004  0.00  0.00    -0.347 OA
BRANCH  42  44
ATOM     43  O   UNL     1     133.511 115.080 127.561  0.00  0.00    -0.347 OA
ATOM     44  C   UNL     1     132.094 115.006 127.476  0.00  0.00    +0.251 C 
ATOM     45  C   UNL     1     131.449 113.807 126.790  0.00  0.00    +0.063 C 
ATOM     46  C   UNL     1     132.320 113.170 125.735  0.00  0.00    +0.026 C 
ATOM     47  C   UNL     1     133.768 112.956 126.180  0.00  0.00    +0.085 C 
ATOM     48  C   UNL     1     134.376 114.238 126.797  0.00  0.00    +0.135 C 
ATOM     49  C   UNL     1     135.178 115.025 125.749  0.00  0.00    +0.039 C 
BRANCH  47  50
ATOM     50  N   UNL     1     133.951 111.717 126.986  0.00  0.00    -0.303 NA
ATOM     51  C   UNL     1     134.177 110.566 126.097  0.00  0.00    +0.105 C 
ATOM     52  C   UNL     1     135.026 111.764 127.978  0.00  0.00    +0.105 C 
ENDBRANCH  47  50
ENDBRANCH  42  44
ENDBRANCH  20  42
TORSDOF 9
ENDMDL
MODEL 18
REMARK VINA RESULT:      -7.7     42.913     48.105
REMARK  Name = 
REMARK  17 active torsions:
REMARK  status: ('A' for Active; 'I' for Inactive)
REMARK    1  A    between atoms: O_1  and  C_18
REMARK    2  A    between atoms: O_1  and  C_26
REMARK    3  A    between atoms: O_5  and  C_30
REMARK    4  A    between atoms: O_5  and  C_40
REMARK    5  A    between atoms: O_6  and  C_29
REMARK    6  A    between atoms: O_6  and  C_43
REMARK    7  A    between atoms: O_8  and  C_31
REMARK    8  A    between atoms: O_9  and  C_34
REMARK    9  A    between atoms: O_9  and  C_48
REMARK   10  A    between atoms: N_11  and  C_45
REMARK   11  A    between atoms: N_11  and  C_50
REMARK   12  A    between atoms: N_11  and  C_51
REMARK   13  A    between atoms: C_27  and  C_33
REMARK   14  A    between atoms: C_32  and  C_39
REMARK   15  A    between atoms: C_36  and  C_41
REMARK   16  A    between atoms: C_41  and  C_47
REMARK   17  A    between atoms: C_46  and  C_49
REMARK                            x       y       z     vdW  Elec       q    Type
REMARK                         _______ _______ _______ _____ _____    ______ ____
ROOT
ATOM      1  O   UNL     1     119.725 122.639 111.578  0.00  0.00    -0.292 OA
ATOM      2  O   UNL     1     126.180 122.740 112.002  0.00  0.00    -0.461 OA
ATOM      3  O   UNL     1     125.795 122.894 109.783  0.00  0.00    -0.251 OA
ATOM      4  C   UNL     1     121.668 123.615 107.199  0.00  0.00    +0.006 C 
ATOM      5  C   UNL     1     122.308 123.094 108.473  0.00  0.00    +0.023 C 
ATOM      6  C   UNL     1     120.171 123.702 107.397  0.00  0.00    +0.018 C 
ATOM      7  C   UNL     1     122.420 124.359 109.378  0.00  0.00    +0.027 C 
ATOM      8  C   UNL     1     121.980 122.933 105.888  0.00  0.00    +0.036 C 
ATOM      9  C   UNL     1     119.691 123.829 105.950  0.00  0.00    +0.039 C 
ATOM     10  C   UNL     1     120.630 122.861 105.189  0.00  0.00    +0.122 C 
ATOM     11  C   UNL     1     122.983 123.616 110.630  0.00  0.00    +0.040 C 
ATOM     12  C   UNL     1     121.600 122.178 109.547  0.00  0.00    -0.015 C 
ATOM     13  C   UNL     1     119.992 124.751 108.487  0.00  0.00    -0.027 C 
ATOM     14  C   UNL     1     120.984 125.043 109.384  0.00  0.00    -0.026 C 
ATOM     15  C   UNL     1     121.920 122.586 110.817  0.00  0.00    -0.004 C 
ATOM     16  C   UNL     1     124.286 124.128 111.305  0.00  0.00    +0.129 C 
ATOM     17  C   UNL     1     120.902 122.448 111.910  0.00  0.00    +0.164 C 
ATOM     18  C   UNL     1     121.202 122.165 113.389  0.00  0.00    +0.086 C 
ATOM     19  C   UNL     1     125.491 123.216 110.935  0.00  0.00    +0.308 C 
ATOM     20  C   UNL     1     121.976 120.896 113.784  0.00  0.00    +0.132 C 
ATOM     21  C   UNL     1     121.397 123.410 114.248  0.00  0.00    +0.018 C 
ATOM     22  C   UNL     1     123.176 120.990 114.763  0.00  0.00    +0.032 C 
ATOM     23  C   UNL     1     125.840 121.374 112.352  0.00  0.00    +0.176 C 
ATOM     24  C   UNL     1     124.510 120.394 114.301  0.00  0.00    +0.006 C 
ATOM     25  C   UNL     1     125.435 121.498 113.821  0.00  0.00    +0.045 C 
ENDROOT
BRANCH  23  26
ATOM     26  C   UNL     1     127.055 120.433 112.183  0.00  0.00    +0.041 C 
ATOM     27  C   UNL     1     126.676 119.040 111.686  0.00  0.00    +0.007 C 
ENDBRANCH  23  26
BRANCH  10  28
ATOM     28  O   UNL     1     120.692 123.189 103.819  0.00  0.00    -0.345 OA
BRANCH  28  30
ATOM     29  O   UNL     1     119.361 121.404 102.862  0.00  0.00    -0.343 OA
ATOM     30  C   UNL     1     120.571 122.161 102.825  0.00  0.00    +0.282 C 
ATOM     31  C   UNL     1     121.824 121.287 102.625  0.00  0.00    +0.205 C 
ATOM     32  C   UNL     1     121.890 120.157 103.658  0.00  0.00    +0.179 C 
ATOM     33  C   UNL     1     119.289 120.308 103.771  0.00  0.00    +0.150 C 
ATOM     34  C   UNL     1     120.553 119.414 103.859  0.00  0.00    +0.177 C 
ATOM     35  C   UNL     1     118.076 119.473 103.369  0.00  0.00    +0.041 C 
BRANCH  31  36
ATOM     36  O   UNL     1     122.017 120.801 101.269  0.00  0.00    -0.372 OA
ATOM     37  C   UNL     1     121.580 121.604 100.183  0.00  0.00    +0.194 C 
ENDBRANCH  31  36
BRANCH  32  38
ATOM     38  O   UNL     1     122.939 119.235 103.299  0.00  0.00    -0.386 OA
ATOM     39  H   UNL     1     122.968 118.552 103.999  0.00  0.00    +0.210 HD
ENDBRANCH  32  38
BRANCH  34  40
ATOM     40  O   UNL     1     120.575 118.565 105.029  0.00  0.00    -0.375 OA
ATOM     41  C   UNL     1     120.916 119.163 106.270  0.00  0.00    +0.194 C 
ENDBRANCH  34  40
ENDBRANCH  28  30
ENDBRANCH  10  28
BRANCH  20  42
ATOM     42  O   UNL     1     122.213 120.063 112.670  0.00  0.00    -0.347 OA
BRANCH  42  44
ATOM     43  O   UNL     1     121.941 117.733 113.156  0.00  0.00    -0.347 OA
ATOM     44  C   UNL     1     121.357 118.904 112.600  0.00  0.00    +0.251 C 
ATOM     45  C   UNL     1     120.703 118.829 111.224  0.00  0.00    +0.063 C 
ATOM     46  C   UNL     1     121.281 117.757 110.334  0.00  0.00    +0.026 C 
ATOM     47  C   UNL     1     121.463 116.409 111.034  0.00  0.00    +0.085 C 
ATOM     48  C   UNL     1     122.200 116.558 112.387  0.00  0.00    +0.135 C 
ATOM     49  C   UNL     1     123.703 116.286 112.227  0.00  0.00    +0.039 C 
BRANCH  47  50
ATOM     50  N   UNL     1     120.211 115.605 111.081  0.00  0.00    -0.303 NA
ATOM     51  C   UNL     1     120.106 114.909 112.374  0.00  0.00    +0.105 C 
ATOM     52  C   UNL     1     118.973 116.350 110.845  0.00  0.00    +0.105 C 
ENDBRANCH  47  50
ENDBRANCH  42  44
ENDBRANCH  20  42
TORSDOF 9
ENDMDL
MODEL 19
REMARK VINA RESULT:      -7.6      8.079     12.211
REMARK  Name = 
REMARK  17 active torsions:
REMARK  status: ('A' for Active; 'I' for Inactive)
REMARK    1  A    between atoms: O_1  and  C_18
REMARK    2  A    between atoms: O_1  and  C_26
REMARK    3  A    between atoms: O_5  and  C_30
REMARK    4  A    between atoms: O_5  and  C_40
REMARK    5  A    between atoms: O_6  and  C_29
REMARK    6  A    between atoms: O_6  and  C_43
REMARK    7  A    between atoms: O_8  and  C_31
REMARK    8  A    between atoms: O_9  and  C_34
REMARK    9  A    between atoms: O_9  and  C_48
REMARK   10  A    between atoms: N_11  and  C_45
REMARK   11  A    between atoms: N_11  and  C_50
REMARK   12  A    between atoms: N_11  and  C_51
REMARK   13  A    between atoms: C_27  and  C_33
REMARK   14  A    between atoms: C_32  and  C_39
REMARK   15  A    between atoms: C_36  and  C_41
REMARK   16  A    between atoms: C_41  and  C_47
REMARK   17  A    between atoms: C_46  and  C_49
REMARK                            x       y       z     vdW  Elec       q    Type
REMARK                         _______ _______ _______ _____ _____    ______ ____
ROOT
ATOM      1  O   UNL     1     114.577 124.077 155.102  0.00  0.00    -0.292 OA
ATOM      2  O   UNL     1     118.549 127.504 158.889  0.00  0.00    -0.461 OA
ATOM      3  O   UNL     1     116.506 127.922 159.753  0.00  0.00    -0.251 OA
ATOM      4  C   UNL     1     112.092 125.921 158.888  0.00  0.00    +0.006 C 
ATOM      5  C   UNL     1     113.478 126.244 158.361  0.00  0.00    +0.023 C 
ATOM      6  C   UNL     1     111.421 124.943 157.949  0.00  0.00    +0.018 C 
ATOM      7  C   UNL     1     114.351 125.050 158.852  0.00  0.00    +0.027 C 
ATOM      8  C   UNL     1     111.149 127.054 159.217  0.00  0.00    +0.036 C 
ATOM      9  C   UNL     1     109.963 125.066 158.391  0.00  0.00    +0.039 C 
ATOM     10  C   UNL     1     109.812 126.583 158.666  0.00  0.00    +0.122 C 
ATOM     11  C   UNL     1     115.665 125.503 158.144  0.00  0.00    +0.040 C 
ATOM     12  C   UNL     1     113.925 126.170 156.848  0.00  0.00    -0.015 C 
ATOM     13  C   UNL     1     112.273 123.684 158.039  0.00  0.00    -0.027 C 
ATOM     14  C   UNL     1     113.586 123.721 158.429  0.00  0.00    -0.026 C 
ATOM     15  C   UNL     1     115.174 125.614 156.739  0.00  0.00    -0.004 C 
ATOM     16  C   UNL     1     116.979 125.626 158.965  0.00  0.00    +0.129 C 
ATOM     17  C   UNL     1     115.502 124.773 155.541  0.00  0.00    +0.164 C 
ATOM     18  C   UNL     1     116.879 124.656 154.873  0.00  0.00    +0.086 C 
ATOM     19  C   UNL     1     117.304 127.118 159.262  0.00  0.00    +0.308 C 
ATOM     20  C   UNL     1     117.577 125.915 154.330  0.00  0.00    +0.132 C 
ATOM     21  C   UNL     1     117.760 123.539 155.422  0.00  0.00    +0.018 C 
ATOM     22  C   UNL     1     119.063 126.191 154.679  0.00  0.00    +0.032 C 
ATOM     23  C   UNL     1     118.581 128.222 157.629  0.00  0.00    +0.176 C 
ATOM     24  C   UNL     1     119.399 127.549 155.304  0.00  0.00    +0.006 C 
ATOM     25  C   UNL     1     119.575 127.403 156.805  0.00  0.00    +0.045 C 
ENDROOT
BRANCH  23  26
ATOM     26  C   UNL     1     119.076 129.673 157.823  0.00  0.00    +0.041 C 
ATOM     27  C   UNL     1     118.697 130.601 156.670  0.00  0.00    +0.007 C 
ENDBRANCH  23  26
BRANCH  10  28
ATOM     28  O   UNL     1     108.730 126.834 159.535  0.00  0.00    -0.345 OA
BRANCH  28  30
ATOM     29  O   UNL     1     108.836 128.530 161.263  0.00  0.00    -0.343 OA
ATOM     30  C   UNL     1     108.428 128.177 159.941  0.00  0.00    +0.282 C 
ATOM     31  C   UNL     1     107.008 128.666 159.597  0.00  0.00    +0.205 C 
ATOM     32  C   UNL     1     105.989 128.214 160.648  0.00  0.00    +0.179 C 
ATOM     33  C   UNL     1     107.971 128.182 162.342  0.00  0.00    +0.150 C 
ATOM     34  C   UNL     1     106.457 128.420 162.103  0.00  0.00    +0.177 C 
ATOM     35  C   UNL     1     108.444 128.964 163.565  0.00  0.00    +0.041 C 
BRANCH  31  36
ATOM     36  O   UNL     1     106.906 130.088 159.312  0.00  0.00    -0.372 OA
ATOM     37  C   UNL     1     107.993 130.739 158.671  0.00  0.00    +0.194 C 
ENDBRANCH  31  36
BRANCH  32  38
ATOM     38  O   UNL     1     104.730 128.877 160.416  0.00  0.00    -0.386 OA
ATOM     39  H   UNL     1     104.224 128.317 159.794  0.00  0.00    +0.210 HD
ENDBRANCH  32  38
BRANCH  34  40
ATOM     40  O   UNL     1     105.612 127.726 163.048  0.00  0.00    -0.375 OA
ATOM     41  C   UNL     1     104.964 128.500 164.046  0.00  0.00    +0.194 C 
ENDBRANCH  34  40
ENDBRANCH  28  30
ENDBRANCH  10  28
BRANCH  20  42
ATOM     42  O   UNL     1     116.747 127.052 154.428  0.00  0.00    -0.347 OA
BRANCH  42  44
ATOM     43  O   UNL     1     116.714 126.809 152.044  0.00  0.00    -0.347 OA
ATOM     44  C   UNL     1     116.367 127.622 153.158  0.00  0.00    +0.251 C 
ATOM     45  C   UNL     1     116.715 129.106 153.135  0.00  0.00    +0.063 C 
ATOM     46  C   UNL     1     117.917 129.435 152.283  0.00  0.00    +0.026 C 
ATOM     47  C   UNL     1     117.904 128.756 150.913  0.00  0.00    +0.085 C 
ATOM     48  C   UNL     1     117.618 127.238 151.025  0.00  0.00    +0.135 C 
ATOM     49  C   UNL     1     118.925 126.432 151.028  0.00  0.00    +0.039 C 
BRANCH  47  50
ATOM     50  N   UNL     1     117.076 129.483 149.912  0.00  0.00    -0.303 NA
ATOM     51  C   UNL     1     117.922 130.396 149.125  0.00  0.00    +0.105 C 
ATOM     52  C   UNL     1     116.313 128.639 148.991  0.00  0.00    +0.105 C 
ENDBRANCH  47  50
ENDBRANCH  42  44
ENDBRANCH  20  42
TORSDOF 9
ENDMDL
MODEL 20
REMARK VINA RESULT:      -7.6     22.855     27.040
REMARK  Name = 
REMARK  17 active torsions:
REMARK  status: ('A' for Active; 'I' for Inactive)
REMARK    1  A    between atoms: O_1  and  C_18
REMARK    2  A    between atoms: O_1  and  C_26
REMARK    3  A    between atoms: O_5  and  C_30
REMARK    4  A    between atoms: O_5  and  C_40
REMARK    5  A    between atoms: O_6  and  C_29
REMARK    6  A    between atoms: O_6  and  C_43
REMARK    7  A    between atoms: O_8  and  C_31
REMARK    8  A    between atoms: O_9  and  C_34
REMARK    9  A    between atoms: O_9  and  C_48
REMARK   10  A    between atoms: N_11  and  C_45
REMARK   11  A    between atoms: N_11  and  C_50
REMARK   12  A    between atoms: N_11  and  C_51
REMARK   13  A    between atoms: C_27  and  C_33
REMARK   14  A    between atoms: C_32  and  C_39
REMARK   15  A    between atoms: C_36  and  C_41
REMARK   16  A    between atoms: C_41  and  C_47
REMARK   17  A    between atoms: C_46  and  C_49
REMARK                            x       y       z     vdW  Elec       q    Type
REMARK                         _______ _______ _______ _____ _____    ______ ____
ROOT
ATOM      1  O   UNL     1     123.981 147.050 138.982  0.00  0.00    -0.292 OA
ATOM      2  O   UNL     1     119.212 151.357 138.225  0.00  0.00    -0.461 OA
ATOM      3  O   UNL     1     120.140 151.230 136.171  0.00  0.00    -0.251 OA
ATOM      4  C   UNL     1     123.482 148.171 134.249  0.00  0.00    +0.006 C 
ATOM      5  C   UNL     1     122.923 148.841 135.490  0.00  0.00    +0.023 C 
ATOM      6  C   UNL     1     124.420 147.059 134.667  0.00  0.00    +0.018 C 
ATOM      7  C   UNL     1     121.752 147.908 135.923  0.00  0.00    +0.027 C 
ATOM      8  C   UNL     1     124.130 149.022 133.182  0.00  0.00    +0.036 C 
ATOM      9  C   UNL     1     125.169 146.801 133.359  0.00  0.00    +0.039 C 
ATOM     10  C   UNL     1     125.365 148.226 132.786  0.00  0.00    +0.122 C 
ATOM     11  C   UNL     1     121.392 148.687 137.226  0.00  0.00    +0.040 C 
ATOM     12  C   UNL     1     123.629 148.894 136.902  0.00  0.00    -0.015 C 
ATOM     13  C   UNL     1     123.526 146.060 135.390  0.00  0.00    -0.027 C 
ATOM     14  C   UNL     1     122.339 146.430 135.965  0.00  0.00    -0.026 C 
ATOM     15  C   UNL     1     122.720 148.678 137.906  0.00  0.00    -0.004 C 
ATOM     16  C   UNL     1     119.925 149.138 137.471  0.00  0.00    +0.129 C 
ATOM     17  C   UNL     1     123.155 147.957 139.147  0.00  0.00    +0.164 C 
ATOM     18  C   UNL     1     122.618 148.201 140.565  0.00  0.00    +0.086 C 
ATOM     19  C   UNL     1     119.765 150.661 137.200  0.00  0.00    +0.308 C 
ATOM     20  C   UNL     1     122.727 149.600 141.194  0.00  0.00    +0.132 C 
ATOM     21  C   UNL     1     121.417 147.344 140.947  0.00  0.00    +0.018 C 
ATOM     22  C   UNL     1     121.489 150.246 141.871  0.00  0.00    +0.032 C 
ATOM     23  C   UNL     1     120.183 152.067 139.036  0.00  0.00    +0.176 C 
ATOM     24  C   UNL     1     121.073 151.641 141.393  0.00  0.00    +0.006 C 
ATOM     25  C   UNL     1     119.895 151.535 140.440  0.00  0.00    +0.045 C 
ENDROOT
BRANCH  23  26
ATOM     26  C   UNL     1     119.966 153.595 138.960  0.00  0.00    +0.041 C 
ATOM     27  C   UNL     1     121.252 154.376 138.699  0.00  0.00    +0.007 C 
ENDBRANCH  23  26
BRANCH  10  28
ATOM     28  O   UNL     1     125.580 148.186 131.393  0.00  0.00    -0.345 OA
BRANCH  28  30
ATOM     29  O   UNL     1     127.438 149.731 131.585  0.00  0.00    -0.343 OA
ATOM     30  C   UNL     1     126.802 148.695 130.837  0.00  0.00    +0.282 C 
ATOM     31  C   UNL     1     126.769 148.977 129.323  0.00  0.00    +0.205 C 
ATOM     32  C   UNL     1     126.164 150.352 129.021  0.00  0.00    +0.179 C 
ATOM     33  C   UNL     1     126.983 151.068 131.391  0.00  0.00    +0.150 C 
ATOM     34  C   UNL     1     126.698 151.483 129.924  0.00  0.00    +0.177 C 
ATOM     35  C   UNL     1     128.030 151.991 132.009  0.00  0.00    +0.041 C 
BRANCH  31  36
ATOM     36  O   UNL     1     128.035 148.774 128.638  0.00  0.00    -0.372 OA
ATOM     37  C   UNL     1     128.188 147.638 127.801  0.00  0.00    +0.194 C 
ENDBRANCH  31  36
BRANCH  32  38
ATOM     38  O   UNL     1     126.360 150.671 127.629  0.00  0.00    -0.386 OA
ATOM     39  H   UNL     1     125.604 151.230 127.357  0.00  0.00    +0.210 HD
ENDBRANCH  32  38
BRANCH  34  40
ATOM     40  O   UNL     1     125.906 152.686 129.812  0.00  0.00    -0.375 OA
ATOM     41  C   UNL     1     124.614 152.682 130.399  0.00  0.00    +0.194 C 
ENDBRANCH  34  40
ENDBRANCH  28  30
ENDBRANCH  10  28
BRANCH  20  42
ATOM     42  O   UNL     1     123.454 150.486 140.371  0.00  0.00    -0.347 OA
BRANCH  42  44
ATOM     43  O   UNL     1     124.837 152.170 141.368  0.00  0.00    -0.347 OA
ATOM     44  C   UNL     1     124.758 150.837 140.879  0.00  0.00    +0.251 C 
ATOM     45  C   UNL     1     125.834 150.328 139.927  0.00  0.00    +0.063 C 
ATOM     46  C   UNL     1     126.484 151.415 139.106  0.00  0.00    +0.026 C 
ATOM     47  C   UNL     1     126.876 152.649 139.920  0.00  0.00    +0.085 C 
ATOM     48  C   UNL     1     125.708 153.151 140.805  0.00  0.00    +0.135 C 
ATOM     49  C   UNL     1     124.939 154.282 140.107  0.00  0.00    +0.039 C 
BRANCH  47  50
ATOM     50  N   UNL     1     128.179 152.491 140.623  0.00  0.00    -0.303 NA
ATOM     51  C   UNL     1     129.229 153.241 139.915  0.00  0.00    +0.105 C 
ATOM     52  C   UNL     1     128.188 152.888 142.033  0.00  0.00    +0.105 C 
ENDBRANCH  47  50
ENDBRANCH  42  44
ENDBRANCH  20  42
TORSDOF 9
ENDMDL
