MODEL 1
REMARK VINA RESULT:      -8.2      0.000      0.000
REMARK  Name = 
REMARK  19 active torsions:
REMARK  status: ('A' for Active; 'I' for Inactive)
REMARK    1  A    between atoms: O_1  and  C_18
REMARK    2  A    between atoms: O_1  and  C_27
REMARK    3  A    between atoms: O_5  and  C_30
REMARK    4  A    between atoms: O_5  and  C_44
REMARK    5  A    between atoms: O_6  and  C_31
REMARK    6  A    between atoms: O_6  and  C_41
REMARK    7  A    between atoms: O_8  and  C_32
REMARK    8  A    between atoms: O_8  and  C_48
REMARK    9  A    between atoms: O_9  and  C_34
REMARK   10  A    between atoms: O_9  and  C_50
REMARK   11  A    between atoms: N_11  and  C_46
REMARK   12  A    between atoms: N_11  and  C_52
REMARK   13  A    between atoms: N_11  and  C_53
REMARK   14  A    between atoms: C_20  and  C_25
REMARK   15  A    between atoms: C_28  and  C_35
REMARK   16  A    between atoms: C_33  and  C_40
REMARK   17  A    between atoms: C_37  and  C_42
REMARK   18  A    between atoms: C_42  and  C_49
REMARK   19  A    between atoms: C_47  and  C_51
REMARK                            x       y       z     vdW  Elec       q    Type
REMARK                         _______ _______ _______ _____ _____    ______ ____
ROOT
ATOM      1  O   UNL     1     117.847 129.470 127.939  0.00  0.00    -0.292 OA
ATOM      2  O   UNL     1     113.579 129.240 123.153  0.00  0.00    -0.461 OA
ATOM      3  O   UNL     1     115.508 128.743 122.084  0.00  0.00    -0.251 OA
ATOM      4  C   UNL     1     120.066 128.020 123.931  0.00  0.00    +0.006 C 
ATOM      5  C   UNL     1     118.691 128.625 124.119  0.00  0.00    +0.023 C 
ATOM      6  C   UNL     1     120.844 128.216 125.207  0.00  0.00    +0.021 C 
ATOM      7  C   UNL     1     117.878 127.493 124.820  0.00  0.00    +0.027 C 
ATOM      8  C   UNL     1     120.921 128.459 122.765  0.00  0.00    +0.036 C 
ATOM      9  C   UNL     1     122.248 127.844 124.737  0.00  0.00    +0.039 C 
ATOM     10  C   UNL     1     122.314 128.572 123.379  0.00  0.00    +0.122 C 
ATOM     11  C   UNL     1     116.555 128.331 124.947  0.00  0.00    +0.040 C 
ATOM     12  C   UNL     1     120.065 127.486 126.296  0.00  0.00    -0.073 C 
ATOM     13  C   UNL     1     118.288 129.772 125.150  0.00  0.00    -0.015 C 
ATOM     14  C   UNL     1     118.756 127.104 126.111  0.00  0.00    -0.023 C 
ATOM     15  C   UNL     1     117.071 129.499 125.731  0.00  0.00    -0.004 C 
ATOM     16  C   UNL     1     115.197 127.839 124.370  0.00  0.00    +0.129 C 
ATOM     17  C   UNL     1     120.756 127.493 127.635  0.00  0.00    +0.039 C 
ATOM     18  C   UNL     1     116.882 129.738 127.199  0.00  0.00    +0.164 C 
ATOM     19  C   UNL     1     115.582 130.214 127.873  0.00  0.00    +0.086 C 
ATOM     20  C   UNL     1     114.795 128.640 123.074  0.00  0.00    +0.308 C 
ATOM     21  C   UNL     1     114.877 131.495 127.381  0.00  0.00    +0.132 C 
ATOM     22  C   UNL     1     114.691 129.103 128.414  0.00  0.00    +0.018 C 
ATOM     23  C   UNL     1     113.377 131.471 127.025  0.00  0.00    +0.032 C 
ATOM     24  C   UNL     1     113.605 130.649 123.499  0.00  0.00    +0.176 C 
ATOM     25  C   UNL     1     112.978 131.932 125.624  0.00  0.00    +0.006 C 
ATOM     26  C   UNL     1     112.706 130.729 124.734  0.00  0.00    +0.045 C 
ENDROOT
BRANCH  24  27
ATOM     27  C   UNL     1     113.035 131.516 122.350  0.00  0.00    +0.041 C 
ATOM     28  C   UNL     1     111.509 131.522 122.291  0.00  0.00    +0.007 C 
ENDBRANCH  24  27
BRANCH  10  29
ATOM     29  O   UNL     1     123.342 128.072 122.559  0.00  0.00    -0.345 OA
BRANCH  29  31
ATOM     30  O   UNL     1     125.185 128.512 121.036  0.00  0.00    -0.343 OA
ATOM     31  C   UNL     1     124.401 128.953 122.149  0.00  0.00    +0.282 C 
ATOM     32  C   UNL     1     125.263 129.526 123.298  0.00  0.00    +0.205 C 
ATOM     33  C   UNL     1     126.309 128.483 123.738  0.00  0.00    +0.183 C 
ATOM     34  C   UNL     1     126.267 127.615 121.286  0.00  0.00    +0.150 C 
ATOM     35  C   UNL     1     127.121 127.892 122.560  0.00  0.00    +0.178 C 
ATOM     36  C   UNL     1     127.149 127.613 120.039  0.00  0.00    +0.041 C 
BRANCH  32  37
ATOM     37  O   UNL     1     125.775 130.848 123.012  0.00  0.00    -0.372 OA
ATOM     38  C   UNL     1     125.345 131.951 123.791  0.00  0.00    +0.194 C 
ENDBRANCH  32  37
BRANCH  33  39
ATOM     39  O   UNL     1     127.079 128.842 124.899  0.00  0.00    -0.374 OA
ATOM     40  C   UNL     1     126.384 129.163 126.088  0.00  0.00    +0.194 C 
ENDBRANCH  33  39
BRANCH  35  41
ATOM     41  O   UNL     1     127.931 126.764 122.963  0.00  0.00    -0.375 OA
ATOM     42  C   UNL     1     127.272 125.531 123.215  0.00  0.00    +0.194 C 
ENDBRANCH  35  41
ENDBRANCH  29  31
ENDBRANCH  10  29
BRANCH  21  43
ATOM     43  O   UNL     1     115.683 132.172 126.433  0.00  0.00    -0.347 OA
BRANCH  43  45
ATOM     44  O   UNL     1     115.703 133.961 128.026  0.00  0.00    -0.347 OA
ATOM     45  C   UNL     1     116.392 133.308 126.967  0.00  0.00    +0.251 C 
ATOM     46  C   UNL     1     116.942 134.132 125.809  0.00  0.00    +0.063 C 
ATOM     47  C   UNL     1     116.186 135.415 125.566  0.00  0.00    +0.026 C 
ATOM     48  C   UNL     1     115.895 136.207 126.842  0.00  0.00    +0.085 C 
ATOM     49  C   UNL     1     115.261 135.317 127.939  0.00  0.00    +0.135 C 
ATOM     50  C   UNL     1     113.728 135.431 127.920  0.00  0.00    +0.039 C 
BRANCH  48  51
ATOM     51  N   UNL     1     117.051 137.031 127.287  0.00  0.00    -0.303 NA
ATOM     52  C   UNL     1     117.257 138.155 126.360  0.00  0.00    +0.105 C 
ATOM     53  C   UNL     1     116.970 137.556 128.651  0.00  0.00    +0.105 C 
ENDBRANCH  48  51
ENDBRANCH  43  45
ENDBRANCH  21  43
TORSDOF 9
ENDMDL
MODEL 2
REMARK VINA RESULT:      -8.0     15.797     20.688
REMARK  Name = 
REMARK  19 active torsions:
REMARK  status: ('A' for Active; 'I' for Inactive)
REMARK    1  A    between atoms: O_1  and  C_18
REMARK    2  A    between atoms: O_1  and  C_27
REMARK    3  A    between atoms: O_5  and  C_30
REMARK    4  A    between atoms: O_5  and  C_44
REMARK    5  A    between atoms: O_6  and  C_31
REMARK    6  A    between atoms: O_6  and  C_41
REMARK    7  A    between atoms: O_8  and  C_32
REMARK    8  A    between atoms: O_8  and  C_48
REMARK    9  A    between atoms: O_9  and  C_34
REMARK   10  A    between atoms: O_9  and  C_50
REMARK   11  A    between atoms: N_11  and  C_46
REMARK   12  A    between atoms: N_11  and  C_52
REMARK   13  A    between atoms: N_11  and  C_53
REMARK   14  A    between atoms: C_20  and  C_25
REMARK   15  A    between atoms: C_28  and  C_35
REMARK   16  A    between atoms: C_33  and  C_40
REMARK   17  A    between atoms: C_37  and  C_42
REMARK   18  A    between atoms: C_42  and  C_49
REMARK   19  A    between atoms: C_47  and  C_51
REMARK                            x       y       z     vdW  Elec       q    Type
REMARK                         _______ _______ _______ _____ _____    ______ ____
ROOT
ATOM      1  O   UNL     1     128.559 116.818 127.876  0.00  0.00    -0.292 OA
ATOM      2  O   UNL     1     132.032 119.205 123.037  0.00  0.00    -0.461 OA
ATOM      3  O   UNL     1     130.214 118.403 121.958  0.00  0.00    -0.251 OA
ATOM      4  C   UNL     1     126.043 116.426 123.801  0.00  0.00    +0.006 C 
ATOM      5  C   UNL     1     127.504 116.758 124.015  0.00  0.00    +0.023 C 
ATOM      6  C   UNL     1     125.487 115.893 125.097  0.00  0.00    +0.021 C 
ATOM      7  C   UNL     1     127.474 118.194 124.625  0.00  0.00    +0.027 C 
ATOM      8  C   UNL     1     125.646 115.495 122.678  0.00  0.00    +0.036 C 
ATOM      9  C   UNL     1     124.147 115.337 124.617  0.00  0.00    +0.039 C 
ATOM     10  C   UNL     1     124.566 114.624 123.315  0.00  0.00    +0.122 C 
ATOM     11  C   UNL     1     129.032 118.304 124.796  0.00  0.00    +0.040 C 
ATOM     12  C   UNL     1     125.653 117.009 126.122  0.00  0.00    -0.073 C 
ATOM     13  C   UNL     1     128.469 116.136 125.121  0.00  0.00    -0.015 C 
ATOM     14  C   UNL     1     126.494 118.074 125.895  0.00  0.00    -0.023 C 
ATOM     15  C   UNL     1     129.275 117.108 125.667  0.00  0.00    -0.004 C 
ATOM     16  C   UNL     1     129.861 119.462 124.170  0.00  0.00    +0.129 C 
ATOM     17  C   UNL     1     125.055 116.683 127.466  0.00  0.00    +0.039 C 
ATOM     18  C   UNL     1     129.521 117.121 127.146  0.00  0.00    +0.164 C 
ATOM     19  C   UNL     1     130.830 117.544 127.837  0.00  0.00    +0.086 C 
ATOM     20  C   UNL     1     130.699 118.969 122.930  0.00  0.00    +0.308 C 
ATOM     21  C   UNL     1     132.168 116.893 127.429  0.00  0.00    +0.132 C 
ATOM     22  C   UNL     1     130.881 118.998 128.288  0.00  0.00    +0.018 C 
ATOM     23  C   UNL     1     133.379 117.772 127.055  0.00  0.00    +0.032 C 
ATOM     24  C   UNL     1     132.826 118.075 123.482  0.00  0.00    +0.176 C 
ATOM     25  C   UNL     1     134.017 117.545 125.686  0.00  0.00    +0.006 C 
ATOM     26  C   UNL     1     133.560 118.618 124.710  0.00  0.00    +0.045 C 
ENDROOT
BRANCH  24  27
ATOM     27  C   UNL     1     133.833 117.638 122.391  0.00  0.00    +0.041 C 
ATOM     28  C   UNL     1     135.056 118.547 122.290  0.00  0.00    +0.007 C 
ENDBRANCH  24  27
BRANCH  10  29
ATOM     29  O   UNL     1     123.468 114.371 122.473  0.00  0.00    -0.345 OA
BRANCH  29  31
ATOM     30  O   UNL     1     122.233 112.848 121.035  0.00  0.00    -0.343 OA
ATOM     31  C   UNL     1     123.161 113.014 122.112  0.00  0.00    +0.282 C 
ATOM     32  C   UNL     1     122.875 112.065 123.299  0.00  0.00    +0.205 C 
ATOM     33  C   UNL     1     121.425 112.257 123.786  0.00  0.00    +0.183 C 
ATOM     34  C   UNL     1     120.838 112.897 121.334  0.00  0.00    +0.150 C 
ATOM     35  C   UNL     1     120.381 112.191 122.646  0.00  0.00    +0.178 C 
ATOM     36  C   UNL     1     120.098 112.322 120.129  0.00  0.00    +0.041 C 
BRANCH  32  37
ATOM     37  O   UNL     1     123.275 110.700 123.037  0.00  0.00    -0.372 OA
ATOM     38  C   UNL     1     124.152 110.042 123.935  0.00  0.00    +0.194 C 
ENDBRANCH  32  37
BRANCH  33  39
ATOM     39  O   UNL     1     121.081 111.533 124.981  0.00  0.00    -0.374 OA
ATOM     40  C   UNL     1     120.518 110.243 124.841  0.00  0.00    +0.194 C 
ENDBRANCH  33  39
BRANCH  35  41
ATOM     41  O   UNL     1     119.064 112.593 123.084  0.00  0.00    -0.375 OA
ATOM     42  C   UNL     1     118.834 113.976 123.313  0.00  0.00    +0.194 C 
ENDBRANCH  35  41
ENDBRANCH  29  31
ENDBRANCH  10  29
BRANCH  21  43
ATOM     43  O   UNL     1     131.944 115.814 126.541  0.00  0.00    -0.347 OA
BRANCH  43  45
ATOM     44  O   UNL     1     133.239 114.455 128.029  0.00  0.00    -0.347 OA
ATOM     45  C   UNL     1     132.135 114.514 127.134  0.00  0.00    +0.251 C 
ATOM     46  C   UNL     1     131.991 113.453 126.049  0.00  0.00    +0.063 C 
ATOM     47  C   UNL     1     133.303 112.841 125.622  0.00  0.00    +0.026 C 
ATOM     48  C   UNL     1     134.208 112.451 126.792  0.00  0.00    +0.085 C 
ATOM     49  C   UNL     1     134.370 113.610 127.805  0.00  0.00    +0.135 C 
ATOM     50  C   UNL     1     135.650 114.413 127.520  0.00  0.00    +0.039 C 
BRANCH  48  51
ATOM     51  N   UNL     1     133.847 111.137 127.388  0.00  0.00    -0.303 NA
ATOM     52  C   UNL     1     134.994 110.218 127.319  0.00  0.00    +0.105 C 
ATOM     53  C   UNL     1     133.361 111.177 128.768  0.00  0.00    +0.105 C 
ENDBRANCH  48  51
ENDBRANCH  43  45
ENDBRANCH  21  43
TORSDOF 9
ENDMDL
MODEL 3
REMARK VINA RESULT:      -8.0     30.865     34.355
REMARK  Name = 
REMARK  19 active torsions:
REMARK  status: ('A' for Active; 'I' for Inactive)
REMARK    1  A    between atoms: O_1  and  C_18
REMARK    2  A    between atoms: O_1  and  C_27
REMARK    3  A    between atoms: O_5  and  C_30
REMARK    4  A    between atoms: O_5  and  C_44
REMARK    5  A    between atoms: O_6  and  C_31
REMARK    6  A    between atoms: O_6  and  C_41
REMARK    7  A    between atoms: O_8  and  C_32
REMARK    8  A    between atoms: O_8  and  C_48
REMARK    9  A    between atoms: O_9  and  C_34
REMARK   10  A    between atoms: O_9  and  C_50
REMARK   11  A    between atoms: N_11  and  C_46
REMARK   12  A    between atoms: N_11  and  C_52
REMARK   13  A    between atoms: N_11  and  C_53
REMARK   14  A    between atoms: C_20  and  C_25
REMARK   15  A    between atoms: C_28  and  C_35
REMARK   16  A    between atoms: C_33  and  C_40
REMARK   17  A    between atoms: C_37  and  C_42
REMARK   18  A    between atoms: C_42  and  C_49
REMARK   19  A    between atoms: C_47  and  C_51
REMARK                            x       y       z     vdW  Elec       q    Type
REMARK                         _______ _______ _______ _____ _____    ______ ____
ROOT
ATOM      1  O   UNL     1     117.292 127.179 161.521  0.00  0.00    -0.292 OA
ATOM      2  O   UNL     1     114.922 124.877 156.020  0.00  0.00    -0.461 OA
ATOM      3  O   UNL     1     116.209 126.589 155.295  0.00  0.00    -0.251 OA
ATOM      4  C   UNL     1     119.270 129.560 157.846  0.00  0.00    +0.006 C 
ATOM      5  C   UNL     1     118.083 128.622 157.873  0.00  0.00    +0.023 C 
ATOM      6  C   UNL     1     119.607 129.932 159.268  0.00  0.00    +0.021 C 
ATOM      7  C   UNL     1     118.721 127.219 158.116  0.00  0.00    +0.027 C 
ATOM      8  C   UNL     1     119.207 130.821 157.013  0.00  0.00    +0.036 C 
ATOM      9  C   UNL     1     120.582 131.083 159.031  0.00  0.00    +0.039 C 
ATOM     10  C   UNL     1     119.859 131.865 157.915  0.00  0.00    +0.122 C 
ATOM     11  C   UNL     1     117.353 126.448 158.147  0.00  0.00    +0.040 C 
ATOM     12  C   UNL     1     119.952 128.627 159.978  0.00  0.00    -0.073 C 
ATOM     13  C   UNL     1     116.990 128.502 159.027  0.00  0.00    -0.015 C 
ATOM     14  C   UNL     1     119.614 127.406 159.442  0.00  0.00    -0.023 C 
ATOM     15  C   UNL     1     116.675 127.184 159.264  0.00  0.00    -0.004 C 
ATOM     16  C   UNL     1     117.049 125.250 157.204  0.00  0.00    +0.129 C 
ATOM     17  C   UNL     1     120.414 128.822 161.399  0.00  0.00    +0.039 C 
ATOM     18  C   UNL     1     116.512 126.704 160.675  0.00  0.00    +0.164 C 
ATOM     19  C   UNL     1     115.518 125.628 161.150  0.00  0.00    +0.086 C 
ATOM     20  C   UNL     1     116.036 125.653 156.066  0.00  0.00    +0.308 C 
ATOM     21  C   UNL     1     114.017 125.759 160.821  0.00  0.00    +0.132 C 
ATOM     22  C   UNL     1     116.085 124.216 161.230  0.00  0.00    +0.018 C 
ATOM     23  C   UNL     1     113.259 124.588 160.163  0.00  0.00    +0.032 C 
ATOM     24  C   UNL     1     113.752 125.437 156.670  0.00  0.00    +0.176 C 
ATOM     25  C   UNL     1     112.533 124.870 158.849  0.00  0.00    +0.006 C 
ATOM     26  C   UNL     1     113.352 124.355 157.676  0.00  0.00    +0.045 C 
ENDROOT
BRANCH  24  27
ATOM     27  C   UNL     1     112.613 125.685 155.651  0.00  0.00    +0.041 C 
ATOM     28  C   UNL     1     112.858 125.032 154.293  0.00  0.00    +0.007 C 
ENDBRANCH  24  27
BRANCH  10  29
ATOM     29  O   UNL     1     120.724 132.744 157.238  0.00  0.00    -0.345 OA
BRANCH  29  31
ATOM     30  O   UNL     1     120.813 135.150 157.573  0.00  0.00    -0.343 OA
ATOM     31  C   UNL     1     121.291 133.856 157.951  0.00  0.00    +0.282 C 
ATOM     32  C   UNL     1     122.827 133.813 158.123  0.00  0.00    +0.205 C 
ATOM     33  C   UNL     1     123.513 134.299 156.832  0.00  0.00    +0.183 C 
ATOM     34  C   UNL     1     121.417 135.790 156.449  0.00  0.00    +0.150 C 
ATOM     35  C   UNL     1     122.963 135.650 156.315  0.00  0.00    +0.178 C 
ATOM     36  C   UNL     1     121.014 137.262 156.498  0.00  0.00    +0.041 C 
BRANCH  32  37
ATOM     37  O   UNL     1     123.274 134.442 159.347  0.00  0.00    -0.372 OA
ATOM     38  C   UNL     1     123.897 133.659 160.351  0.00  0.00    +0.194 C 
ENDBRANCH  32  37
BRANCH  33  39
ATOM     39  O   UNL     1     124.946 134.170 156.815  0.00  0.00    -0.374 OA
ATOM     40  C   UNL     1     125.535 133.396 155.788  0.00  0.00    +0.194 C 
ENDBRANCH  33  39
BRANCH  35  41
ATOM     41  O   UNL     1     123.455 135.975 154.995  0.00  0.00    -0.375 OA
ATOM     42  C   UNL     1     124.447 136.987 154.888  0.00  0.00    +0.194 C 
ENDBRANCH  35  41
ENDBRANCH  29  31
ENDBRANCH  10  29
BRANCH  21  43
ATOM     43  O   UNL     1     113.745 127.021 160.240  0.00  0.00    -0.347 OA
BRANCH  43  45
ATOM     44  O   UNL     1     111.840 127.220 161.678  0.00  0.00    -0.347 OA
ATOM     45  C   UNL     1     112.935 127.886 161.061  0.00  0.00    +0.251 C 
ATOM     46  C   UNL     1     112.693 129.190 160.310  0.00  0.00    +0.063 C 
ATOM     47  C   UNL     1     111.295 129.321 159.757  0.00  0.00    +0.026 C 
ATOM     48  C   UNL     1     110.202 128.937 160.757  0.00  0.00    +0.085 C 
ATOM     49  C   UNL     1     110.479 127.563 161.412  0.00  0.00    +0.135 C 
ATOM     50  C   UNL     1     109.728 126.442 160.674  0.00  0.00    +0.039 C 
BRANCH  48  51
ATOM     51  N   UNL     1     109.876 130.036 161.706  0.00  0.00    -0.303 NA
ATOM     52  C   UNL     1     108.480 130.465 161.522  0.00  0.00    +0.105 C 
ATOM     53  C   UNL     1     110.092 129.737 163.122  0.00  0.00    +0.105 C 
ENDBRANCH  48  51
ENDBRANCH  43  45
ENDBRANCH  21  43
TORSDOF 9
ENDMDL
MODEL 4
REMARK VINA RESULT:      -8.0     32.244     34.901
REMARK  Name = 
REMARK  19 active torsions:
REMARK  status: ('A' for Active; 'I' for Inactive)
REMARK    1  A    between atoms: O_1  and  C_18
REMARK    2  A    between atoms: O_1  and  C_27
REMARK    3  A    between atoms: O_5  and  C_30
REMARK    4  A    between atoms: O_5  and  C_44
REMARK    5  A    between atoms: O_6  and  C_31
REMARK    6  A    between atoms: O_6  and  C_41
REMARK    7  A    between atoms: O_8  and  C_32
REMARK    8  A    between atoms: O_8  and  C_48
REMARK    9  A    between atoms: O_9  and  C_34
REMARK   10  A    between atoms: O_9  and  C_50
REMARK   11  A    between atoms: N_11  and  C_46
REMARK   12  A    between atoms: N_11  and  C_52
REMARK   13  A    between atoms: N_11  and  C_53
REMARK   14  A    between atoms: C_20  and  C_25
REMARK   15  A    between atoms: C_28  and  C_35
REMARK   16  A    between atoms: C_33  and  C_40
REMARK   17  A    between atoms: C_37  and  C_42
REMARK   18  A    between atoms: C_42  and  C_49
REMARK   19  A    between atoms: C_47  and  C_51
REMARK                            x       y       z     vdW  Elec       q    Type
REMARK                         _______ _______ _______ _____ _____    ______ ____
ROOT
ATOM      1  O   UNL     1     125.948 127.267 161.315  0.00  0.00    -0.292 OA
ATOM      2  O   UNL     1     122.997 128.368 155.725  0.00  0.00    -0.461 OA
ATOM      3  O   UNL     1     124.978 127.515 155.048  0.00  0.00    -0.251 OA
ATOM      4  C   UNL     1     128.707 125.628 157.739  0.00  0.00    +0.006 C 
ATOM      5  C   UNL     1     127.485 126.520 157.696  0.00  0.00    +0.023 C 
ATOM      6  C   UNL     1     129.181 125.548 159.168  0.00  0.00    +0.021 C 
ATOM      7  C   UNL     1     126.310 125.560 158.060  0.00  0.00    +0.027 C 
ATOM      8  C   UNL     1     129.889 125.937 156.849  0.00  0.00    +0.036 C 
ATOM      9  C   UNL     1     130.547 124.894 158.972  0.00  0.00    +0.039 C 
ATOM     10  C   UNL     1     131.086 125.682 157.760  0.00  0.00    +0.122 C 
ATOM     11  C   UNL     1     125.200 126.671 157.998  0.00  0.00    +0.040 C 
ATOM     12  C   UNL     1     128.029 124.943 159.964  0.00  0.00    -0.073 C 
ATOM     13  C   UNL     1     127.097 127.654 158.747  0.00  0.00    -0.015 C 
ATOM     14  C   UNL     1     126.753 124.889 159.454  0.00  0.00    -0.023 C 
ATOM     15  C   UNL     1     125.747 127.630 159.012  0.00  0.00    -0.004 C 
ATOM     16  C   UNL     1     123.948 126.549 157.084  0.00  0.00    +0.129 C 
ATOM     17  C   UNL     1     128.366 124.696 161.412  0.00  0.00    +0.039 C 
ATOM     18  C   UNL     1     125.266 127.802 160.422  0.00  0.00    +0.164 C 
ATOM     19  C   UNL     1     123.972 128.518 160.850  0.00  0.00    +0.086 C 
ATOM     20  C   UNL     1     124.044 127.510 155.840  0.00  0.00    +0.308 C 
ATOM     21  C   UNL     1     123.689 129.959 160.377  0.00  0.00    +0.132 C 
ATOM     22  C   UNL     1     122.765 127.609 161.045  0.00  0.00    +0.018 C 
ATOM     23  C   UNL     1     122.346 130.308 159.703  0.00  0.00    +0.032 C 
ATOM     24  C   UNL     1     123.233 129.705 156.238  0.00  0.00    +0.176 C 
ATOM     25  C   UNL     1     122.399 130.945 158.316  0.00  0.00    +0.006 C 
ATOM     26  C   UNL     1     122.102 129.904 157.248  0.00  0.00    +0.045 C 
ENDROOT
BRANCH  24  27
ATOM     27  C   UNL     1     123.149 130.759 155.107  0.00  0.00    +0.041 C 
ATOM     28  C   UNL     1     122.696 130.180 153.768  0.00  0.00    +0.007 C 
ENDBRANCH  24  27
BRANCH  10  29
ATOM     29  O   UNL     1     132.153 125.016 157.128  0.00  0.00    -0.345 OA
BRANCH  29  31
ATOM     30  O   UNL     1     134.452 125.752 157.415  0.00  0.00    -0.343 OA
ATOM     31  C   UNL     1     133.400 124.873 157.827  0.00  0.00    +0.282 C 
ATOM     32  C   UNL     1     133.881 123.416 158.023  0.00  0.00    +0.205 C 
ATOM     33  C   UNL     1     134.553 122.908 156.732  0.00  0.00    +0.183 C 
ATOM     34  C   UNL     1     135.243 125.376 156.287  0.00  0.00    +0.150 C 
ATOM     35  C   UNL     1     135.631 123.871 156.179  0.00  0.00    +0.178 C 
ATOM     36  C   UNL     1     136.492 126.253 156.300  0.00  0.00    +0.041 C 
BRANCH  32  37
ATOM     37  O   UNL     1     134.641 123.234 159.240  0.00  0.00    -0.372 OA
ATOM     38  C   UNL     1     134.183 123.817 160.448  0.00  0.00    +0.194 C 
ENDBRANCH  32  37
BRANCH  33  39
ATOM     39  O   UNL     1     134.915 121.515 156.740  0.00  0.00    -0.374 OA
ATOM     40  C   UNL     1     134.295 120.659 155.800  0.00  0.00    +0.194 C 
ENDBRANCH  33  39
BRANCH  35  41
ATOM     41  O   UNL     1     136.084 123.489 154.861  0.00  0.00    -0.375 OA
ATOM     42  C   UNL     1     137.296 122.753 154.764  0.00  0.00    +0.194 C 
ENDBRANCH  35  41
ENDBRANCH  29  31
ENDBRANCH  10  29
BRANCH  21  43
ATOM     43  O   UNL     1     124.821 130.495 159.717  0.00  0.00    -0.347 OA
BRANCH  43  45
ATOM     44  O   UNL     1     124.906 131.854 161.688  0.00  0.00    -0.347 OA
ATOM     45  C   UNL     1     125.388 131.651 160.365  0.00  0.00    +0.251 C 
ATOM     46  C   UNL     1     125.390 132.815 159.380  0.00  0.00    +0.063 C 
ATOM     47  C   UNL     1     124.335 133.855 159.670  0.00  0.00    +0.026 C 
ATOM     48  C   UNL     1     124.257 134.255 161.145  0.00  0.00    +0.085 C 
ATOM     49  C   UNL     1     124.173 133.019 162.072  0.00  0.00    +0.135 C 
ATOM     50  C   UNL     1     122.712 132.698 162.429  0.00  0.00    +0.039 C 
BRANCH  48  51
ATOM     51  N   UNL     1     125.284 135.263 161.525  0.00  0.00    -0.303 NA
ATOM     52  C   UNL     1     124.645 136.563 161.781  0.00  0.00    +0.105 C 
ATOM     53  C   UNL     1     126.118 134.916 162.676  0.00  0.00    +0.105 C 
ENDBRANCH  48  51
ENDBRANCH  43  45
ENDBRANCH  21  43
TORSDOF 9
ENDMDL
MODEL 5
REMARK VINA RESULT:      -7.9     35.355     40.014
REMARK  Name = 
REMARK  19 active torsions:
REMARK  status: ('A' for Active; 'I' for Inactive)
REMARK    1  A    between atoms: O_1  and  C_18
REMARK    2  A    between atoms: O_1  and  C_27
REMARK    3  A    between atoms: O_5  and  C_30
REMARK    4  A    between atoms: O_5  and  C_44
REMARK    5  A    between atoms: O_6  and  C_31
REMARK    6  A    between atoms: O_6  and  C_41
REMARK    7  A    between atoms: O_8  and  C_32
REMARK    8  A    between atoms: O_8  and  C_48
REMARK    9  A    between atoms: O_9  and  C_34
REMARK   10  A    between atoms: O_9  and  C_50
REMARK   11  A    between atoms: N_11  and  C_46
REMARK   12  A    between atoms: N_11  and  C_52
REMARK   13  A    between atoms: N_11  and  C_53
REMARK   14  A    between atoms: C_20  and  C_25
REMARK   15  A    between atoms: C_28  and  C_35
REMARK   16  A    between atoms: C_33  and  C_40
REMARK   17  A    between atoms: C_37  and  C_42
REMARK   18  A    between atoms: C_42  and  C_49
REMARK   19  A    between atoms: C_47  and  C_51
REMARK                            x       y       z     vdW  Elec       q    Type
REMARK                         _______ _______ _______ _____ _____    ______ ____
ROOT
ATOM      1  O   UNL     1     120.692 113.564 161.496  0.00  0.00    -0.292 OA
ATOM      2  O   UNL     1     123.846 114.501 155.987  0.00  0.00    -0.461 OA
ATOM      3  O   UNL     1     121.772 113.976 155.255  0.00  0.00    -0.251 OA
ATOM      4  C   UNL     1     117.597 113.199 157.838  0.00  0.00    +0.006 C 
ATOM      5  C   UNL     1     119.110 113.233 157.834  0.00  0.00    +0.023 C 
ATOM      6  C   UNL     1     117.136 112.970 159.255  0.00  0.00    +0.021 C 
ATOM      7  C   UNL     1     119.451 114.709 158.211  0.00  0.00    +0.027 C 
ATOM      8  C   UNL     1     116.870 112.237 156.926  0.00  0.00    +0.036 C 
ATOM      9  C   UNL     1     115.659 112.658 159.020  0.00  0.00    +0.039 C 
ATOM     10  C   UNL     1     115.741 111.710 157.807  0.00  0.00    +0.122 C 
ATOM     11  C   UNL     1     121.008 114.502 158.188  0.00  0.00    +0.040 C 
ATOM     12  C   UNL     1     117.662 114.147 160.069  0.00  0.00    -0.073 C 
ATOM     13  C   UNL     1     120.081 112.566 158.908  0.00  0.00    -0.015 C 
ATOM     14  C   UNL     1     118.655 114.968 159.587  0.00  0.00    -0.023 C 
ATOM     15  C   UNL     1     121.131 113.405 159.203  0.00  0.00    -0.004 C 
ATOM     16  C   UNL     1     121.951 115.363 157.301  0.00  0.00    +0.129 C 
ATOM     17  C   UNL     1     117.208 114.134 161.505  0.00  0.00    +0.039 C 
ATOM     18  C   UNL     1     121.581 113.556 160.625  0.00  0.00    +0.164 C 
ATOM     19  C   UNL     1     123.033 113.773 161.091  0.00  0.00    +0.086 C 
ATOM     20  C   UNL     1     122.491 114.545 156.068  0.00  0.00    +0.308 C 
ATOM     21  C   UNL     1     124.145 112.803 160.643  0.00  0.00    +0.132 C 
ATOM     22  C   UNL     1     123.433 115.228 161.301  0.00  0.00    +0.018 C 
ATOM     23  C   UNL     1     125.440 113.344 160.004  0.00  0.00    +0.032 C 
ATOM     24  C   UNL     1     124.458 113.294 156.512  0.00  0.00    +0.176 C 
ATOM     25  C   UNL     1     125.821 112.810 158.624  0.00  0.00    +0.006 C 
ATOM     26  C   UNL     1     125.451 113.821 157.550  0.00  0.00    +0.045 C 
ENDROOT
BRANCH  24  27
ATOM     27  C   UNL     1     125.194 112.513 155.397  0.00  0.00    +0.041 C 
ATOM     28  C   UNL     1     126.343 113.294 154.762  0.00  0.00    +0.007 C 
ENDBRANCH  24  27
BRANCH  10  29
ATOM     29  O   UNL     1     114.506 111.592 157.143  0.00  0.00    -0.345 OA
BRANCH  29  31
ATOM     30  O   UNL     1     113.087 109.648 157.488  0.00  0.00    -0.343 OA
ATOM     31  C   UNL     1     113.393 111.002 157.835  0.00  0.00    +0.282 C 
ATOM     32  C   UNL     1     112.133 111.893 157.934  0.00  0.00    +0.205 C 
ATOM     33  C   UNL     1     111.340 111.827 156.614  0.00  0.00    +0.183 C 
ATOM     34  C   UNL     1     112.271 109.414 156.340  0.00  0.00    +0.150 C 
ATOM     35  C   UNL     1     111.067 110.382 156.132  0.00  0.00    +0.178 C 
ATOM     36  C   UNL     1     111.789 107.967 156.418  0.00  0.00    +0.041 C 
BRANCH  32  37
ATOM     37  O   UNL     1     111.369 111.655 159.139  0.00  0.00    -0.372 OA
ATOM     38  C   UNL     1     112.040 111.521 160.380  0.00  0.00    +0.194 C 
ENDBRANCH  32  37
BRANCH  33  39
ATOM     39  O   UNL     1     110.220 112.728 156.529  0.00  0.00    -0.374 OA
ATOM     40  C   UNL     1     110.399 113.952 155.844  0.00  0.00    +0.194 C 
ENDBRANCH  33  39
BRANCH  35  41
ATOM     41  O   UNL     1     110.526 110.343 154.793  0.00  0.00    -0.375 OA
ATOM     42  C   UNL     1     109.113 110.318 154.650  0.00  0.00    +0.194 C 
ENDBRANCH  35  41
ENDBRANCH  29  31
ENDBRANCH  10  29
BRANCH  21  43
ATOM     43  O   UNL     1     123.590 111.691 159.965  0.00  0.00    -0.347 OA
BRANCH  43  45
ATOM     44  O   UNL     1     124.454 110.555 161.888  0.00  0.00    -0.347 OA
ATOM     45  C   UNL     1     123.730 110.441 160.669  0.00  0.00    +0.251 C 
ATOM     46  C   UNL     1     124.109 109.354 159.670  0.00  0.00    +0.063 C 
ATOM     47  C   UNL     1     125.555 108.930 159.755  0.00  0.00    +0.026 C 
ATOM     48  C   UNL     1     126.041 108.692 161.186  0.00  0.00    +0.085 C 
ATOM     49  C   UNL     1     125.691 109.878 162.117  0.00  0.00    +0.135 C 
ATOM     50  C   UNL     1     126.876 110.851 162.235  0.00  0.00    +0.039 C 
BRANCH  48  51
ATOM     51  N   UNL     1     125.669 107.348 161.706  0.00  0.00    -0.303 NA
ATOM     52  C   UNL     1     126.068 106.307 160.747  0.00  0.00    +0.105 C 
ATOM     53  C   UNL     1     126.209 107.005 163.023  0.00  0.00    +0.105 C 
ENDBRANCH  48  51
ENDBRANCH  43  45
ENDBRANCH  21  43
TORSDOF 9
ENDMDL
MODEL 6
REMARK VINA RESULT:      -7.9      9.328     12.807
REMARK  Name = 
REMARK  19 active torsions:
REMARK  status: ('A' for Active; 'I' for Inactive)
REMARK    1  A    between atoms: O_1  and  C_18
REMARK    2  A    between atoms: O_1  and  C_27
REMARK    3  A    between atoms: O_5  and  C_30
REMARK    4  A    between atoms: O_5  and  C_44
REMARK    5  A    between atoms: O_6  and  C_31
REMARK    6  A    between atoms: O_6  and  C_41
REMARK    7  A    between atoms: O_8  and  C_32
REMARK    8  A    between atoms: O_8  and  C_48
REMARK    9  A    between atoms: O_9  and  C_34
REMARK   10  A    between atoms: O_9  and  C_50
REMARK   11  A    between atoms: N_11  and  C_46
REMARK   12  A    between atoms: N_11  and  C_52
REMARK   13  A    between atoms: N_11  and  C_53
REMARK   14  A    between atoms: C_20  and  C_25
REMARK   15  A    between atoms: C_28  and  C_35
REMARK   16  A    between atoms: C_33  and  C_40
REMARK   17  A    between atoms: C_37  and  C_42
REMARK   18  A    between atoms: C_42  and  C_49
REMARK   19  A    between atoms: C_47  and  C_51
REMARK                            x       y       z     vdW  Elec       q    Type
REMARK                         _______ _______ _______ _____ _____    ______ ____
ROOT
ATOM      1  O   UNL     1     112.298 120.506 127.845  0.00  0.00    -0.292 OA
ATOM      2  O   UNL     1     111.174 116.351 123.086  0.00  0.00    -0.461 OA
ATOM      3  O   UNL     1     112.226 118.032 122.001  0.00  0.00    -0.251 OA
ATOM      4  C   UNL     1     114.319 122.160 123.812  0.00  0.00    +0.006 C 
ATOM      5  C   UNL     1     113.326 121.036 124.014  0.00  0.00    +0.023 C 
ATOM      6  C   UNL     1     114.381 122.966 125.085  0.00  0.00    +0.021 C 
ATOM      7  C   UNL     1     114.163 119.919 124.712  0.00  0.00    +0.027 C 
ATOM      8  C   UNL     1     114.152 123.104 122.643  0.00  0.00    +0.036 C 
ATOM      9  C   UNL     1     115.160 124.189 124.602  0.00  0.00    +0.039 C 
ATOM     10  C   UNL     1     114.474 124.467 123.249  0.00  0.00    +0.122 C 
ATOM     11  C   UNL     1     112.963 118.916 124.854  0.00  0.00    +0.040 C 
ATOM     12  C   UNL     1     114.849 122.007 126.174  0.00  0.00    -0.073 C 
ATOM     13  C   UNL     1     112.120 121.007 125.056  0.00  0.00    -0.015 C 
ATOM     14  C   UNL     1     114.812 120.643 125.995  0.00  0.00    -0.023 C 
ATOM     15  C   UNL     1     112.015 119.767 125.643  0.00  0.00    -0.004 C 
ATOM     16  C   UNL     1     113.013 117.470 124.282  0.00  0.00    +0.129 C 
ATOM     17  C   UNL     1     115.065 122.673 127.508  0.00  0.00    +0.039 C 
ATOM     18  C   UNL     1     111.742 119.665 127.114  0.00  0.00    +0.164 C 
ATOM     19  C   UNL     1     110.898 118.575 127.800  0.00  0.00    +0.086 C 
ATOM     20  C   UNL     1     112.115 117.326 122.996  0.00  0.00    +0.308 C 
ATOM     21  C   UNL     1     109.460 118.292 127.322  0.00  0.00    +0.132 C 
ATOM     22  C   UNL     1     111.690 117.390 128.339  0.00  0.00    +0.018 C 
ATOM     23  C   UNL     1     109.022 116.854 126.975  0.00  0.00    +0.032 C 
ATOM     24  C   UNL     1     109.843 116.806 123.442  0.00  0.00    +0.176 C 
ATOM     25  C   UNL     1     108.450 116.609 125.581  0.00  0.00    +0.006 C 
ATOM     26  C   UNL     1     109.504 115.979 124.684  0.00  0.00    +0.045 C 
ENDROOT
BRANCH  24  27
ATOM     27  C   UNL     1     108.834 116.523 122.303  0.00  0.00    +0.041 C 
ATOM     28  C   UNL     1     108.319 115.085 122.289  0.00  0.00    +0.007 C 
ENDBRANCH  24  27
BRANCH  10  29
ATOM     29  O   UNL     1     115.256 125.291 122.419  0.00  0.00    -0.345 OA
BRANCH  29  31
ATOM     30  O   UNL     1     115.440 127.347 121.135  0.00  0.00    -0.343 OA
ATOM     31  C   UNL     1     114.911 126.679 122.285  0.00  0.00    +0.282 C 
ATOM     32  C   UNL     1     115.045 127.518 123.577  0.00  0.00    +0.205 C 
ATOM     33  C   UNL     1     116.519 127.912 123.796  0.00  0.00    +0.183 C 
ATOM     34  C   UNL     1     116.768 127.866 121.207  0.00  0.00    +0.150 C 
ATOM     35  C   UNL     1     117.177 128.547 122.547  0.00  0.00    +0.178 C 
ATOM     36  C   UNL     1     116.937 128.835 120.039  0.00  0.00    +0.041 C 
BRANCH  32  37
ATOM     37  O   UNL     1     114.089 128.601 123.647  0.00  0.00    -0.372 OA
ATOM     38  C   UNL     1     112.715 128.340 123.415  0.00  0.00    +0.194 C 
ENDBRANCH  32  37
BRANCH  33  39
ATOM     39  O   UNL     1     116.796 128.573 125.043  0.00  0.00    -0.374 OA
ATOM     40  C   UNL     1     116.475 127.897 126.244  0.00  0.00    +0.194 C 
ENDBRANCH  33  39
BRANCH  35  41
ATOM     41  O   UNL     1     118.607 128.700 122.698  0.00  0.00    -0.375 OA
ATOM     42  C   UNL     1     119.407 127.528 122.656  0.00  0.00    +0.194 C 
ENDBRANCH  35  41
ENDBRANCH  29  31
ENDBRANCH  10  29
BRANCH  21  43
ATOM     43  O   UNL     1     109.052 119.262 126.374  0.00  0.00    -0.347 OA
BRANCH  43  45
ATOM     44  O   UNL     1     107.390 119.866 127.989  0.00  0.00    -0.347 OA
ATOM     45  C   UNL     1     108.216 120.303 126.917  0.00  0.00    +0.251 C 
ATOM     46  C   UNL     1     107.599 121.089 125.766  0.00  0.00    +0.063 C 
ATOM     47  C   UNL     1     106.136 120.791 125.545  0.00  0.00    +0.026 C 
ATOM     48  C   UNL     1     105.311 120.776 126.833  0.00  0.00    +0.085 C 
ATOM     49  C   UNL     1     105.962 119.889 127.922  0.00  0.00    +0.135 C 
ATOM     50  C   UNL     1     105.355 118.476 127.914  0.00  0.00    +0.039 C 
BRANCH  48  51
ATOM     51  N   UNL     1     104.915 122.138 127.281  0.00  0.00    -0.303 NA
ATOM     52  C   UNL     1     103.816 122.645 126.444  0.00  0.00    +0.105 C 
ATOM     53  C   UNL     1     104.527 122.256 128.687  0.00  0.00    +0.105 C 
ENDBRANCH  48  51
ENDBRANCH  43  45
ENDBRANCH  21  43
TORSDOF 9
ENDMDL
MODEL 7
REMARK VINA RESULT:      -7.9      8.825     12.864
REMARK  Name = 
REMARK  19 active torsions:
REMARK  status: ('A' for Active; 'I' for Inactive)
REMARK    1  A    between atoms: O_1  and  C_18
REMARK    2  A    between atoms: O_1  and  C_27
REMARK    3  A    between atoms: O_5  and  C_30
REMARK    4  A    between atoms: O_5  and  C_44
REMARK    5  A    between atoms: O_6  and  C_31
REMARK    6  A    between atoms: O_6  and  C_41
REMARK    7  A    between atoms: O_8  and  C_32
REMARK    8  A    between atoms: O_8  and  C_48
REMARK    9  A    between atoms: O_9  and  C_34
REMARK   10  A    between atoms: O_9  and  C_50
REMARK   11  A    between atoms: N_11  and  C_46
REMARK   12  A    between atoms: N_11  and  C_52
REMARK   13  A    between atoms: N_11  and  C_53
REMARK   14  A    between atoms: C_20  and  C_25
REMARK   15  A    between atoms: C_28  and  C_35
REMARK   16  A    between atoms: C_33  and  C_40
REMARK   17  A    between atoms: C_37  and  C_42
REMARK   18  A    between atoms: C_42  and  C_49
REMARK   19  A    between atoms: C_47  and  C_51
REMARK                            x       y       z     vdW  Elec       q    Type
REMARK                         _______ _______ _______ _____ _____    ______ ____
ROOT
ATOM      1  O   UNL     1     111.868 120.337 128.842  0.00  0.00    -0.292 OA
ATOM      2  O   UNL     1     112.303 118.098 122.845  0.00  0.00    -0.461 OA
ATOM      3  O   UNL     1     113.407 120.065 122.691  0.00  0.00    -0.251 OA
ATOM      4  C   UNL     1     114.601 123.322 126.251  0.00  0.00    +0.006 C 
ATOM      5  C   UNL     1     113.704 122.187 125.805  0.00  0.00    +0.023 C 
ATOM      6  C   UNL     1     114.284 123.632 127.692  0.00  0.00    +0.021 C 
ATOM      7  C   UNL     1     114.461 120.906 126.275  0.00  0.00    +0.027 C 
ATOM      8  C   UNL     1     114.618 124.613 125.465  0.00  0.00    +0.036 C 
ATOM      9  C   UNL     1     115.028 124.955 127.862  0.00  0.00    +0.039 C 
ATOM     10  C   UNL     1     114.653 125.681 126.554  0.00  0.00    +0.122 C 
ATOM     11  C   UNL     1     113.367 119.902 125.762  0.00  0.00    +0.040 C 
ATOM     12  C   UNL     1     114.577 122.357 128.476  0.00  0.00    -0.073 C 
ATOM     13  C   UNL     1     112.297 121.780 126.435  0.00  0.00    -0.015 C 
ATOM     14  C   UNL     1     114.718 121.142 127.846  0.00  0.00    -0.023 C 
ATOM     15  C   UNL     1     112.181 120.412 126.524  0.00  0.00    -0.004 C 
ATOM     16  C   UNL     1     113.691 118.749 124.771  0.00  0.00    +0.129 C 
ATOM     17  C   UNL     1     114.409 122.517 129.965  0.00  0.00    +0.039 C 
ATOM     18  C   UNL     1     111.585 119.799 127.756  0.00  0.00    +0.164 C 
ATOM     19  C   UNL     1     110.716 118.528 127.798  0.00  0.00    +0.086 C 
ATOM     20  C   UNL     1     113.138 119.054 123.328  0.00  0.00    +0.308 C 
ATOM     21  C   UNL     1     109.464 118.414 126.905  0.00  0.00    +0.132 C 
ATOM     22  C   UNL     1     111.473 117.239 128.090  0.00  0.00    +0.018 C 
ATOM     23  C   UNL     1     109.264 117.183 125.997  0.00  0.00    +0.032 C 
ATOM     24  C   UNL     1     110.887 118.385 122.984  0.00  0.00    +0.176 C 
ATOM     25  C   UNL     1     109.060 117.436 124.505  0.00  0.00    +0.006 C 
ATOM     26  C   UNL     1     110.352 117.172 123.747  0.00  0.00    +0.045 C 
ENDROOT
BRANCH  24  27
ATOM     27  C   UNL     1     110.205 118.506 121.600  0.00  0.00    +0.041 C 
ATOM     28  C   UNL     1     110.562 119.792 120.855  0.00  0.00    +0.007 C 
ENDBRANCH  24  27
BRANCH  10  29
ATOM     29  O   UNL     1     115.522 126.752 126.276  0.00  0.00    -0.345 OA
BRANCH  29  31
ATOM     30  O   UNL     1     113.755 128.387 126.623  0.00  0.00    -0.343 OA
ATOM     31  C   UNL     1     115.152 128.079 126.686  0.00  0.00    +0.282 C 
ATOM     32  C   UNL     1     116.040 129.213 126.124  0.00  0.00    +0.205 C 
ATOM     33  C   UNL     1     115.612 129.547 124.681  0.00  0.00    +0.183 C 
ATOM     34  C   UNL     1     113.215 128.813 125.372  0.00  0.00    +0.150 C 
ATOM     35  C   UNL     1     114.091 129.789 124.531  0.00  0.00    +0.178 C 
ATOM     36  C   UNL     1     111.848 129.431 125.660  0.00  0.00    +0.041 C 
BRANCH  32  37
ATOM     37  O   UNL     1     116.149 130.341 127.024  0.00  0.00    -0.372 OA
ATOM     38  C   UNL     1     116.937 130.228 128.197  0.00  0.00    +0.194 C 
ENDBRANCH  32  37
BRANCH  33  39
ATOM     39  O   UNL     1     116.458 130.489 123.996  0.00  0.00    -0.374 OA
ATOM     40  C   UNL     1     117.305 130.005 122.973  0.00  0.00    +0.194 C 
ENDBRANCH  33  39
BRANCH  35  41
ATOM     41  O   UNL     1     113.683 129.877 123.147  0.00  0.00    -0.375 OA
ATOM     42  C   UNL     1     113.242 131.138 122.665  0.00  0.00    +0.194 C 
ENDBRANCH  35  41
ENDBRANCH  29  31
ENDBRANCH  10  29
BRANCH  21  43
ATOM     43  O   UNL     1     109.195 119.649 126.268  0.00  0.00    -0.347 OA
BRANCH  43  45
ATOM     44  O   UNL     1     107.463 119.767 127.918  0.00  0.00    -0.347 OA
ATOM     45  C   UNL     1     108.244 120.478 126.966  0.00  0.00    +0.251 C 
ATOM     46  C   UNL     1     107.552 121.388 125.957  0.00  0.00    +0.063 C 
ATOM     47  C   UNL     1     106.133 120.978 125.645  0.00  0.00    +0.026 C 
ATOM     48  C   UNL     1     105.305 120.640 126.887  0.00  0.00    +0.085 C 
ATOM     49  C   UNL     1     106.043 119.647 127.817  0.00  0.00    +0.135 C 
ATOM     50  C   UNL     1     105.597 118.201 127.539  0.00  0.00    +0.039 C 
BRANCH  48  51
ATOM     51  N   UNL     1     104.755 121.848 127.560  0.00  0.00    -0.303 NA
ATOM     52  C   UNL     1     103.300 121.712 127.733  0.00  0.00    +0.105 C 
ATOM     53  C   UNL     1     105.352 122.180 128.855  0.00  0.00    +0.105 C 
ENDBRANCH  48  51
ENDBRANCH  43  45
ENDBRANCH  21  43
TORSDOF 9
ENDMDL
MODEL 8
REMARK VINA RESULT:      -7.9     34.775     38.518
REMARK  Name = 
REMARK  19 active torsions:
REMARK  status: ('A' for Active; 'I' for Inactive)
REMARK    1  A    between atoms: O_1  and  C_18
REMARK    2  A    between atoms: O_1  and  C_27
REMARK    3  A    between atoms: O_5  and  C_30
REMARK    4  A    between atoms: O_5  and  C_44
REMARK    5  A    between atoms: O_6  and  C_31
REMARK    6  A    between atoms: O_6  and  C_41
REMARK    7  A    between atoms: O_8  and  C_32
REMARK    8  A    between atoms: O_8  and  C_48
REMARK    9  A    between atoms: O_9  and  C_34
REMARK   10  A    between atoms: O_9  and  C_50
REMARK   11  A    between atoms: N_11  and  C_46
REMARK   12  A    between atoms: N_11  and  C_52
REMARK   13  A    between atoms: N_11  and  C_53
REMARK   14  A    between atoms: C_20  and  C_25
REMARK   15  A    between atoms: C_28  and  C_35
REMARK   16  A    between atoms: C_33  and  C_40
REMARK   17  A    between atoms: C_37  and  C_42
REMARK   18  A    between atoms: C_42  and  C_49
REMARK   19  A    between atoms: C_47  and  C_51
REMARK                            x       y       z     vdW  Elec       q    Type
REMARK                         _______ _______ _______ _____ _____    ______ ____
ROOT
ATOM      1  O   UNL     1     128.399 118.558 161.312  0.00  0.00    -0.292 OA
ATOM      2  O   UNL     1     128.595 121.672 155.705  0.00  0.00    -0.461 OA
ATOM      3  O   UNL     1     128.391 119.521 155.039  0.00  0.00    -0.251 OA
ATOM      4  C   UNL     1     127.708 115.410 157.748  0.00  0.00    +0.006 C 
ATOM      5  C   UNL     1     128.186 116.846 157.701  0.00  0.00    +0.023 C 
ATOM      6  C   UNL     1     127.764 114.943 159.180  0.00  0.00    +0.021 C 
ATOM      7  C   UNL     1     126.911 117.675 158.049  0.00  0.00    +0.027 C 
ATOM      8  C   UNL     1     128.371 114.374 156.869  0.00  0.00    +0.036 C 
ATOM      9  C   UNL     1     127.560 113.441 158.991  0.00  0.00    +0.039 C 
ATOM     10  C   UNL     1     128.484 113.161 157.789  0.00  0.00    +0.122 C 
ATOM     11  C   UNL     1     127.631 119.070 157.985  0.00  0.00    +0.040 C 
ATOM     12  C   UNL     1     126.831 115.860 159.964  0.00  0.00    -0.073 C 
ATOM     13  C   UNL     1     129.138 117.567 158.756  0.00  0.00    -0.015 C 
ATOM     14  C   UNL     1     126.395 117.056 159.443  0.00  0.00    -0.023 C 
ATOM     15  C   UNL     1     128.702 118.847 159.010  0.00  0.00    -0.004 C 
ATOM     16  C   UNL     1     127.140 120.220 157.060  0.00  0.00    +0.129 C 
ATOM     17  C   UNL     1     126.687 115.472 161.412  0.00  0.00    +0.039 C 
ATOM     18  C   UNL     1     128.708 119.366 160.416  0.00  0.00    +0.164 C 
ATOM     19  C   UNL     1     128.992 120.820 160.838  0.00  0.00    +0.086 C 
ATOM     20  C   UNL     1     128.096 120.415 155.823  0.00  0.00    +0.308 C 
ATOM     21  C   UNL     1     130.282 121.525 160.372  0.00  0.00    +0.132 C 
ATOM     22  C   UNL     1     127.757 121.692 161.018  0.00  0.00    +0.018 C 
ATOM     23  C   UNL     1     130.211 122.906 159.689  0.00  0.00    +0.032 C 
ATOM     24  C   UNL     1     129.936 121.857 156.228  0.00  0.00    +0.176 C 
ATOM     25  C   UNL     1     130.846 123.042 158.307  0.00  0.00    +0.006 C 
ATOM     26  C   UNL     1     129.772 123.001 157.230  0.00  0.00    +0.045 C 
ENDROOT
BRANCH  24  27
ATOM     27  C   UNL     1     130.923 122.252 155.103  0.00  0.00    +0.041 C 
ATOM     28  C   UNL     1     132.269 121.536 155.194  0.00  0.00    +0.007 C 
ENDBRANCH  24  27
BRANCH  10  29
ATOM     29  O   UNL     1     128.180 111.939 157.161  0.00  0.00    -0.345 OA
BRANCH  29  31
ATOM     30  O   UNL     1     129.618 110.013 157.528  0.00  0.00    -0.343 OA
ATOM     31  C   UNL     1     128.417 110.711 157.870  0.00  0.00    +0.282 C 
ATOM     32  C   UNL     1     127.193 109.773 157.987  0.00  0.00    +0.205 C 
ATOM     33  C   UNL     1     127.016 108.977 156.678  0.00  0.00    +0.183 C 
ATOM     34  C   UNL     1     129.596 109.148 156.392  0.00  0.00    +0.150 C 
ATOM     35  C   UNL     1     128.314 108.282 156.201  0.00  0.00    +0.178 C 
ATOM     36  C   UNL     1     130.835 108.260 156.477  0.00  0.00    +0.041 C 
BRANCH  32  37
ATOM     37  O   UNL     1     127.199 108.989 159.202  0.00  0.00    -0.372 OA
ATOM     38  C   UNL     1     127.786 109.522 160.377  0.00  0.00    +0.194 C 
ENDBRANCH  32  37
BRANCH  33  39
ATOM     39  O   UNL     1     125.825 108.173 156.609  0.00  0.00    -0.374 OA
ATOM     40  C   UNL     1     124.761 108.625 155.794  0.00  0.00    +0.194 C 
ENDBRANCH  33  39
BRANCH  35  41
ATOM     41  O   UNL     1     128.186 107.734 154.870  0.00  0.00    -0.375 OA
ATOM     42  C   UNL     1     127.717 106.399 154.745  0.00  0.00    +0.194 C 
ENDBRANCH  35  41
ENDBRANCH  29  31
ENDBRANCH  10  29
BRANCH  21  43
ATOM     43  O   UNL     1     131.143 120.607 159.724  0.00  0.00    -0.347 OA
BRANCH  43  45
ATOM     44  O   UNL     1     132.441 120.956 161.707  0.00  0.00    -0.347 OA
ATOM     45  C   UNL     1     132.403 120.405 160.397  0.00  0.00    +0.251 C 
ATOM     46  C   UNL     1     133.534 120.709 159.421  0.00  0.00    +0.063 C 
ATOM     47  C   UNL     1     134.230 122.022 159.690  0.00  0.00    +0.026 C 
ATOM     48  C   UNL     1     134.569 122.245 161.165  0.00  0.00    +0.085 C 
ATOM     49  C   UNL     1     133.346 121.998 162.080  0.00  0.00    +0.135 C 
ATOM     50  C   UNL     1     132.620 123.316 162.395  0.00  0.00    +0.039 C 
BRANCH  48  51
ATOM     51  N   UNL     1     135.820 121.554 161.580  0.00  0.00    -0.303 NA
ATOM     52  C   UNL     1     136.978 122.438 161.374  0.00  0.00    +0.105 C 
ATOM     53  C   UNL     1     135.846 121.062 162.959  0.00  0.00    +0.105 C 
ENDBRANCH  48  51
ENDBRANCH  43  45
ENDBRANCH  21  43
TORSDOF 9
ENDMDL
MODEL 9
REMARK VINA RESULT:      -7.7     97.587    101.687
REMARK  Name = 
REMARK  19 active torsions:
REMARK  status: ('A' for Active; 'I' for Inactive)
REMARK    1  A    between atoms: O_1  and  C_18
REMARK    2  A    between atoms: O_1  and  C_27
REMARK    3  A    between atoms: O_5  and  C_30
REMARK    4  A    between atoms: O_5  and  C_44
REMARK    5  A    between atoms: O_6  and  C_31
REMARK    6  A    between atoms: O_6  and  C_41
REMARK    7  A    between atoms: O_8  and  C_32
REMARK    8  A    between atoms: O_8  and  C_48
REMARK    9  A    between atoms: O_9  and  C_34
REMARK   10  A    between atoms: O_9  and  C_50
REMARK   11  A    between atoms: N_11  and  C_46
REMARK   12  A    between atoms: N_11  and  C_52
REMARK   13  A    between atoms: N_11  and  C_53
REMARK   14  A    between atoms: C_20  and  C_25
REMARK   15  A    between atoms: C_28  and  C_35
REMARK   16  A    between atoms: C_33  and  C_40
REMARK   17  A    between atoms: C_37  and  C_42
REMARK   18  A    between atoms: C_42  and  C_49
REMARK   19  A    between atoms: C_47  and  C_51
REMARK                            x       y       z     vdW  Elec       q    Type
REMARK                         _______ _______ _______ _____ _____    ______ ____
ROOT
ATOM      1  O   UNL     1     108.549 108.115  24.885  0.00  0.00    -0.292 OA
ATOM      2  O   UNL     1     107.640 107.180  31.167  0.00  0.00    -0.461 OA
ATOM      3  O   UNL     1     109.883 107.433  31.052  0.00  0.00    -0.251 OA
ATOM      4  C   UNL     1     112.749 108.613  27.165  0.00  0.00    +0.006 C 
ATOM      5  C   UNL     1     111.432 108.054  27.660  0.00  0.00    +0.023 C 
ATOM      6  C   UNL     1     112.676 108.728  25.664  0.00  0.00    +0.021 C 
ATOM      7  C   UNL     1     110.513 109.311  27.774  0.00  0.00    +0.027 C 
ATOM      8  C   UNL     1     114.040 107.922  27.541  0.00  0.00    +0.036 C 
ATOM      9  C   UNL     1     114.143 108.994  25.334  0.00  0.00    +0.039 C 
ATOM     10  C   UNL     1     114.848 107.970  26.247  0.00  0.00    +0.122 C 
ATOM     11  C   UNL     1     109.244 108.512  28.243  0.00  0.00    +0.040 C 
ATOM     12  C   UNL     1     111.526 109.684  25.366  0.00  0.00    -0.073 C 
ATOM     13  C   UNL     1     110.396 107.176  26.825  0.00  0.00    -0.015 C 
ATOM     14  C   UNL     1     110.587 109.999  26.321  0.00  0.00    -0.023 C 
ATOM     15  C   UNL     1     109.103 107.564  27.090  0.00  0.00    -0.004 C 
ATOM     16  C   UNL     1     108.491 108.842  29.563  0.00  0.00    +0.129 C 
ATOM     17  C   UNL     1     111.370 109.996  23.900  0.00  0.00    +0.039 C 
ATOM     18  C   UNL     1     108.118 107.673  25.965  0.00  0.00    +0.164 C 
ATOM     19  C   UNL     1     106.614 107.354  26.053  0.00  0.00    +0.086 C 
ATOM     20  C   UNL     1     108.765 107.757  30.671  0.00  0.00    +0.308 C 
ATOM     21  C   UNL     1     106.141 105.986  26.587  0.00  0.00    +0.132 C 
ATOM     22  C   UNL     1     105.715 108.551  26.335  0.00  0.00    +0.018 C 
ATOM     23  C   UNL     1     105.092 105.911  27.716  0.00  0.00    +0.032 C 
ATOM     24  C   UNL     1     107.301 105.891  30.593  0.00  0.00    +0.176 C 
ATOM     25  C   UNL     1     105.468 105.133  28.975  0.00  0.00    +0.006 C 
ATOM     26  C   UNL     1     105.873 106.093  30.083  0.00  0.00    +0.045 C 
ENDROOT
BRANCH  24  27
ATOM     27  C   UNL     1     107.348 104.775  31.665  0.00  0.00    +0.041 C 
ATOM     28  C   UNL     1     106.035 104.606  32.427  0.00  0.00    +0.007 C 
ENDBRANCH  24  27
BRANCH  10  29
ATOM     29  O   UNL     1     116.208 108.275  26.433  0.00  0.00    -0.345 OA
BRANCH  29  31
ATOM     30  O   UNL     1     118.133 107.279  27.535  0.00  0.00    -0.343 OA
ATOM     31  C   UNL     1     117.166 107.204  26.484  0.00  0.00    +0.282 C 
ATOM     32  C   UNL     1     117.790 106.816  25.123  0.00  0.00    +0.205 C 
ATOM     33  C   UNL     1     118.920 107.801  24.765  0.00  0.00    +0.183 C 
ATOM     34  C   UNL     1     119.299 108.075  27.324  0.00  0.00    +0.150 C 
ATOM     35  C   UNL     1     119.945 108.003  25.908  0.00  0.00    +0.178 C 
ATOM     36  C   UNL     1     120.312 107.684  28.397  0.00  0.00    +0.041 C 
BRANCH  32  37
ATOM     37  O   UNL     1     118.131 105.413  25.041  0.00  0.00    -0.372 OA
ATOM     38  C   UNL     1     117.607 104.625  23.985  0.00  0.00    +0.194 C 
ENDBRANCH  32  37
BRANCH  33  39
ATOM     39  O   UNL     1     119.485 107.632  23.453  0.00  0.00    -0.374 OA
ATOM     40  C   UNL     1     118.654 107.868  22.333  0.00  0.00    +0.194 C 
ENDBRANCH  33  39
BRANCH  35  41
ATOM     41  O   UNL     1     120.860 109.089  25.639  0.00  0.00    -0.375 OA
ATOM     42  C   UNL     1     120.322 110.400  25.541  0.00  0.00    +0.194 C 
ENDBRANCH  35  41
ENDBRANCH  29  31
ENDBRANCH  10  29
BRANCH  21  43
ATOM     43  O   UNL     1     107.243 105.116  26.767  0.00  0.00    -0.347 OA
BRANCH  43  45
ATOM     44  O   UNL     1     108.377 103.133  26.047  0.00  0.00    -0.347 OA
ATOM     45  C   UNL     1     107.276 104.009  25.843  0.00  0.00    +0.251 C 
ATOM     46  C   UNL     1     106.981 104.530  24.441  0.00  0.00    +0.063 C 
ATOM     47  C   UNL     1     108.197 104.594  23.550  0.00  0.00    +0.026 C 
ATOM     48  C   UNL     1     109.064 103.335  23.603  0.00  0.00    +0.085 C 
ATOM     49  C   UNL     1     109.388 102.920  25.059  0.00  0.00    +0.135 C 
ATOM     50  C   UNL     1     110.755 103.472  25.495  0.00  0.00    +0.039 C 
BRANCH  48  51
ATOM     51  N   UNL     1     108.547 102.242  22.735  0.00  0.00    -0.303 NA
ATOM     52  C   UNL     1     108.936 102.481  21.336  0.00  0.00    +0.105 C 
ATOM     53  C   UNL     1     108.954 100.887  23.110  0.00  0.00    +0.105 C 
ENDBRANCH  48  51
ENDBRANCH  43  45
ENDBRANCH  21  43
TORSDOF 9
ENDMDL
MODEL 10
REMARK VINA RESULT:      -7.7     22.935     27.862
REMARK  Name = 
REMARK  19 active torsions:
REMARK  status: ('A' for Active; 'I' for Inactive)
REMARK    1  A    between atoms: O_1  and  C_18
REMARK    2  A    between atoms: O_1  and  C_27
REMARK    3  A    between atoms: O_5  and  C_30
REMARK    4  A    between atoms: O_5  and  C_44
REMARK    5  A    between atoms: O_6  and  C_31
REMARK    6  A    between atoms: O_6  and  C_41
REMARK    7  A    between atoms: O_8  and  C_32
REMARK    8  A    between atoms: O_8  and  C_48
REMARK    9  A    between atoms: O_9  and  C_34
REMARK   10  A    between atoms: O_9  and  C_50
REMARK   11  A    between atoms: N_11  and  C_46
REMARK   12  A    between atoms: N_11  and  C_52
REMARK   13  A    between atoms: N_11  and  C_53
REMARK   14  A    between atoms: C_20  and  C_25
REMARK   15  A    between atoms: C_28  and  C_35
REMARK   16  A    between atoms: C_33  and  C_40
REMARK   17  A    between atoms: C_37  and  C_42
REMARK   18  A    between atoms: C_42  and  C_49
REMARK   19  A    between atoms: C_47  and  C_51
REMARK                            x       y       z     vdW  Elec       q    Type
REMARK                         _______ _______ _______ _____ _____    ______ ____
ROOT
ATOM      1  O   UNL     1      96.932 131.164 139.618  0.00  0.00    -0.292 OA
ATOM      2  O   UNL     1      91.285 128.304 138.571  0.00  0.00    -0.461 OA
ATOM      3  O   UNL     1      91.830 129.035 136.502  0.00  0.00    -0.251 OA
ATOM      4  C   UNL     1      95.993 131.232 134.906  0.00  0.00    +0.006 C 
ATOM      5  C   UNL     1      95.091 130.898 136.075  0.00  0.00    +0.023 C 
ATOM      6  C   UNL     1      97.239 131.887 135.447  0.00  0.00    +0.021 C 
ATOM      7  C   UNL     1      95.628 129.522 136.579  0.00  0.00    +0.027 C 
ATOM      8  C   UNL     1      95.458 132.067 133.765  0.00  0.00    +0.036 C 
ATOM      9  C   UNL     1      97.857 132.418 134.155  0.00  0.00    +0.039 C 
ATOM     10  C   UNL     1      96.618 133.007 133.449  0.00  0.00    +0.122 C 
ATOM     11  C   UNL     1      94.609 129.404 137.769  0.00  0.00    +0.040 C 
ATOM     12  C   UNL     1      97.891 130.863 136.371  0.00  0.00    -0.073 C 
ATOM     13  C   UNL     1      95.086 131.601 137.506  0.00  0.00    -0.015 C 
ATOM     14  C   UNL     1      97.197 129.770 136.835  0.00  0.00    -0.023 C 
ATOM     15  C   UNL     1      94.935 130.668 138.506  0.00  0.00    -0.004 C 
ATOM     16  C   UNL     1      93.661 128.182 137.937  0.00  0.00    +0.129 C 
ATOM     17  C   UNL     1      99.215 131.317 136.929  0.00  0.00    +0.039 C 
ATOM     18  C   UNL     1      95.755 130.782 139.755  0.00  0.00    +0.164 C 
ATOM     19  C   UNL     1      95.293 130.402 141.174  0.00  0.00    +0.086 C 
ATOM     20  C   UNL     1      92.173 128.550 137.573  0.00  0.00    +0.308 C 
ATOM     21  C   UNL     1      93.990 130.993 141.749  0.00  0.00    +0.132 C 
ATOM     22  C   UNL     1      95.665 128.992 141.617  0.00  0.00    +0.018 C 
ATOM     23  C   UNL     1      92.911 130.066 142.347  0.00  0.00    +0.032 C 
ATOM     24  C   UNL     1      90.923 129.455 139.375  0.00  0.00    +0.176 C 
ATOM     25  C   UNL     1      91.502 130.160 141.767  0.00  0.00    +0.006 C 
ATOM     26  C   UNL     1      91.254 129.012 140.802  0.00  0.00    +0.045 C 
ENDROOT
BRANCH  24  27
ATOM     27  C   UNL     1      89.415 129.779 139.238  0.00  0.00    +0.041 C 
ATOM     28  C   UNL     1      89.120 131.274 139.131  0.00  0.00    +0.007 C 
ENDBRANCH  24  27
BRANCH  10  29
ATOM     29  O   UNL     1      96.837 133.202 132.073  0.00  0.00    -0.345 OA
BRANCH  29  31
ATOM     30  O   UNL     1      95.933 132.436 129.950  0.00  0.00    -0.343 OA
ATOM     31  C   UNL     1      95.718 133.148 131.172  0.00  0.00    +0.282 C 
ATOM     32  C   UNL     1      94.979 134.490 130.960  0.00  0.00    +0.205 C 
ATOM     33  C   UNL     1      95.748 135.356 129.944  0.00  0.00    +0.183 C 
ATOM     34  C   UNL     1      96.548 133.129 128.864  0.00  0.00    +0.150 C 
ATOM     35  C   UNL     1      96.101 134.605 128.638  0.00  0.00    +0.178 C 
ATOM     36  C   UNL     1      96.311 132.297 127.606  0.00  0.00    +0.041 C 
BRANCH  32  37
ATOM     37  O   UNL     1      93.567 134.319 130.699  0.00  0.00    -0.372 OA
ATOM     38  C   UNL     1      92.712 133.865 131.734  0.00  0.00    +0.194 C 
ENDBRANCH  32  37
BRANCH  33  39
ATOM     39  O   UNL     1      95.238 136.691 129.769  0.00  0.00    -0.374 OA
ATOM     40  C   UNL     1      94.370 136.937 128.680  0.00  0.00    +0.194 C 
ENDBRANCH  33  39
BRANCH  35  41
ATOM     41  O   UNL     1      97.008 135.356 127.800  0.00  0.00    -0.375 OA
ATOM     42  C   UNL     1      98.303 135.639 128.311  0.00  0.00    +0.194 C 
ENDBRANCH  35  41
ENDBRANCH  29  31
ENDBRANCH  10  29
BRANCH  21  43
ATOM     43  O   UNL     1      93.476 131.993 140.889  0.00  0.00    -0.347 OA
BRANCH  43  45
ATOM     44  O   UNL     1      92.391 133.996 141.630  0.00  0.00    -0.347 OA
ATOM     45  C   UNL     1      93.628 133.336 141.390  0.00  0.00    +0.251 C 
ATOM     46  C   UNL     1      94.711 134.042 140.582  0.00  0.00    +0.063 C 
ATOM     47  C   UNL     1      94.172 135.058 139.604  0.00  0.00    +0.026 C 
ATOM     48  C   UNL     1      93.106 135.979 140.201  0.00  0.00    +0.085 C 
ATOM     49  C   UNL     1      92.000 135.180 140.931  0.00  0.00    +0.135 C 
ATOM     50  C   UNL     1      90.794 134.940 140.007  0.00  0.00    +0.039 C 
BRANCH  48  51
ATOM     51  N   UNL     1      93.687 137.108 140.977  0.00  0.00    -0.303 NA
ATOM     52  C   UNL     1      93.861 138.282 140.107  0.00  0.00    +0.105 C 
ATOM     53  C   UNL     1      92.937 137.513 142.167  0.00  0.00    +0.105 C 
ENDBRANCH  48  51
ENDBRANCH  43  45
ENDBRANCH  21  43
TORSDOF 9
ENDMDL
MODEL 11
REMARK VINA RESULT:      -7.7     34.088     38.133
REMARK  Name = 
REMARK  19 active torsions:
REMARK  status: ('A' for Active; 'I' for Inactive)
REMARK    1  A    between atoms: O_1  and  C_18
REMARK    2  A    between atoms: O_1  and  C_27
REMARK    3  A    between atoms: O_5  and  C_30
REMARK    4  A    between atoms: O_5  and  C_44
REMARK    5  A    between atoms: O_6  and  C_31
REMARK    6  A    between atoms: O_6  and  C_41
REMARK    7  A    between atoms: O_8  and  C_32
REMARK    8  A    between atoms: O_8  and  C_48
REMARK    9  A    between atoms: O_9  and  C_34
REMARK   10  A    between atoms: O_9  and  C_50
REMARK   11  A    between atoms: N_11  and  C_46
REMARK   12  A    between atoms: N_11  and  C_52
REMARK   13  A    between atoms: N_11  and  C_53
REMARK   14  A    between atoms: C_20  and  C_25
REMARK   15  A    between atoms: C_28  and  C_35
REMARK   16  A    between atoms: C_33  and  C_40
REMARK   17  A    between atoms: C_37  and  C_42
REMARK   18  A    between atoms: C_42  and  C_49
REMARK   19  A    between atoms: C_47  and  C_51
REMARK                            x       y       z     vdW  Elec       q    Type
REMARK                         _______ _______ _______ _____ _____    ______ ____
ROOT
ATOM      1  O   UNL     1     104.053 101.360 139.305  0.00  0.00    -0.292 OA
ATOM      2  O   UNL     1     105.051  95.090 138.375  0.00  0.00    -0.461 OA
ATOM      3  O   UNL     1     104.495  95.788 136.298  0.00  0.00    -0.251 OA
ATOM      4  C   UNL     1     103.645 100.388 134.617  0.00  0.00    +0.006 C 
ATOM      5  C   UNL     1     103.704  99.452 135.804  0.00  0.00    +0.023 C 
ATOM      6  C   UNL     1     103.406 101.785 135.132  0.00  0.00    +0.021 C 
ATOM      7  C   UNL     1     105.184  99.555 136.288  0.00  0.00    +0.027 C 
ATOM      8  C   UNL     1     102.673 100.108 133.493  0.00  0.00    +0.036 C 
ATOM      9  C   UNL     1     103.071 102.508 133.828  0.00  0.00    +0.039 C 
ATOM     10  C   UNL     1     102.126 101.492 133.155  0.00  0.00    +0.122 C 
ATOM     11  C   UNL     1     105.002  98.574 137.501  0.00  0.00    +0.040 C 
ATOM     12  C   UNL     1     104.590 102.114 136.034  0.00  0.00    -0.073 C 
ATOM     13  C   UNL     1     103.051  99.690 137.239  0.00  0.00    -0.015 C 
ATOM     14  C   UNL     1     105.428 101.131 136.508  0.00  0.00    -0.023 C 
ATOM     15  C   UNL     1     103.906  99.283 138.237  0.00  0.00    -0.004 C 
ATOM     16  C   UNL     1     105.881  97.304 137.685  0.00  0.00    +0.129 C 
ATOM     17  C   UNL     1     104.567 103.525 136.563  0.00  0.00    +0.039 C 
ATOM     18  C   UNL     1     104.062 100.126 139.467  0.00  0.00    +0.164 C 
ATOM     19  C   UNL     1     104.301  99.599 140.894  0.00  0.00    +0.086 C 
ATOM     20  C   UNL     1     105.074  95.991 137.359  0.00  0.00    +0.308 C 
ATOM     21  C   UNL     1     103.350  98.550 141.504  0.00  0.00    +0.132 C 
ATOM     22  C   UNL     1     105.762  99.535 141.321  0.00  0.00    +0.018 C 
ATOM     23  C   UNL     1     103.913  97.253 142.122  0.00  0.00    +0.032 C 
ATOM     24  C   UNL     1     103.854  95.112 139.194  0.00  0.00    +0.176 C 
ATOM     25  C   UNL     1     103.388  95.927 141.576  0.00  0.00    +0.006 C 
ATOM     26  C   UNL     1     104.395  95.322 140.610  0.00  0.00    +0.045 C 
ENDROOT
BRANCH  24  27
ATOM     27  C   UNL     1     103.086  93.771 139.094  0.00  0.00    +0.041 C 
ATOM     28  C   UNL     1     103.830  92.595 139.723  0.00  0.00    +0.007 C 
ENDBRANCH  24  27
BRANCH  10  29
ATOM     29  O   UNL     1     101.989 101.731 131.775  0.00  0.00    -0.345 OA
BRANCH  29  31
ATOM     30  O   UNL     1      99.564 101.819 131.922  0.00  0.00    -0.343 OA
ATOM     31  C   UNL     1     100.757 102.277 131.278  0.00  0.00    +0.282 C 
ATOM     32  C   UNL     1     100.627 102.314 129.737  0.00  0.00    +0.205 C 
ATOM     33  C   UNL     1     100.215 100.925 129.213  0.00  0.00    +0.183 C 
ATOM     34  C   UNL     1      98.990 100.588 131.482  0.00  0.00    +0.150 C 
ATOM     35  C   UNL     1      98.989 100.330 129.946  0.00  0.00    +0.178 C 
ATOM     36  C   UNL     1      97.569 100.530 132.038  0.00  0.00    +0.041 C 
BRANCH  32  37
ATOM     37  O   UNL     1      99.830 103.425 129.266  0.00  0.00    -0.372 OA
ATOM     38  C   UNL     1     100.042 103.937 127.961  0.00  0.00    +0.194 C 
ENDBRANCH  32  37
BRANCH  33  39
ATOM     39  O   UNL     1     100.202 100.792 127.780  0.00  0.00    -0.374 OA
ATOM     40  C   UNL     1     101.349 100.255 127.148  0.00  0.00    +0.194 C 
ENDBRANCH  33  39
BRANCH  35  41
ATOM     41  O   UNL     1      98.759  98.946 129.597  0.00  0.00    -0.375 OA
ATOM     42  C   UNL     1      99.740  97.994 129.982  0.00  0.00    +0.194 C 
ENDBRANCH  35  41
ENDBRANCH  29  31
ENDBRANCH  10  29
BRANCH  21  43
ATOM     43  O   UNL     1     102.231  98.346 140.661  0.00  0.00    -0.347 OA
BRANCH  43  45
ATOM     44  O   UNL     1     100.039  97.924 141.531  0.00  0.00    -0.347 OA
ATOM     45  C   UNL     1     101.002  98.906 141.168  0.00  0.00    +0.251 C 
ATOM     46  C   UNL     1     100.588 100.070 140.275  0.00  0.00    +0.063 C 
ATOM     47  C   UNL     1      99.424  99.753 139.368  0.00  0.00    +0.026 C 
ATOM     48  C   UNL     1      98.271  99.037 140.075  0.00  0.00    +0.085 C 
ATOM     49  C   UNL     1      98.765  97.819 140.891  0.00  0.00    +0.135 C 
ATOM     50  C   UNL     1      98.627  96.521 140.078  0.00  0.00    +0.039 C 
BRANCH  48  51
ATOM     51  N   UNL     1      97.378  99.972 140.812  0.00  0.00    -0.303 NA
ATOM     52  C   UNL     1      96.162 100.234 140.026  0.00  0.00    +0.105 C 
ATOM     53  C   UNL     1      96.984  99.546 142.157  0.00  0.00    +0.105 C 
ENDBRANCH  48  51
ENDBRANCH  43  45
ENDBRANCH  21  43
TORSDOF 9
ENDMDL
MODEL 12
REMARK VINA RESULT:      -7.6     34.200     38.181
REMARK  Name = 
REMARK  19 active torsions:
REMARK  status: ('A' for Active; 'I' for Inactive)
REMARK    1  A    between atoms: O_1  and  C_18
REMARK    2  A    between atoms: O_1  and  C_27
REMARK    3  A    between atoms: O_5  and  C_30
REMARK    4  A    between atoms: O_5  and  C_44
REMARK    5  A    between atoms: O_6  and  C_31
REMARK    6  A    between atoms: O_6  and  C_41
REMARK    7  A    between atoms: O_8  and  C_32
REMARK    8  A    between atoms: O_8  and  C_48
REMARK    9  A    between atoms: O_9  and  C_34
REMARK   10  A    between atoms: O_9  and  C_50
REMARK   11  A    between atoms: N_11  and  C_46
REMARK   12  A    between atoms: N_11  and  C_52
REMARK   13  A    between atoms: N_11  and  C_53
REMARK   14  A    between atoms: C_20  and  C_25
REMARK   15  A    between atoms: C_28  and  C_35
REMARK   16  A    between atoms: C_33  and  C_40
REMARK   17  A    between atoms: C_37  and  C_42
REMARK   18  A    between atoms: C_42  and  C_49
REMARK   19  A    between atoms: C_47  and  C_51
REMARK                            x       y       z     vdW  Elec       q    Type
REMARK                         _______ _______ _______ _____ _____    ______ ____
ROOT
ATOM      1  O   UNL     1     104.148 101.070 139.761  0.00  0.00    -0.292 OA
ATOM      2  O   UNL     1     105.079  94.811 138.696  0.00  0.00    -0.461 OA
ATOM      3  O   UNL     1     104.627  95.577 136.618  0.00  0.00    -0.251 OA
ATOM      4  C   UNL     1     103.930 100.236 135.034  0.00  0.00    +0.006 C 
ATOM      5  C   UNL     1     103.920  99.266 136.195  0.00  0.00    +0.023 C 
ATOM      6  C   UNL     1     103.692 101.622 135.577  0.00  0.00    +0.021 C 
ATOM      7  C   UNL     1     105.380  99.329 136.745  0.00  0.00    +0.027 C 
ATOM      8  C   UNL     1     103.004 100.006 133.861  0.00  0.00    +0.036 C 
ATOM      9  C   UNL     1     103.427 102.388 134.282  0.00  0.00    +0.039 C 
ATOM     10  C   UNL     1     102.495 101.408 133.539  0.00  0.00    +0.122 C 
ATOM     11  C   UNL     1     105.128  98.318 137.921  0.00  0.00    +0.040 C 
ATOM     12  C   UNL     1     104.841 101.905 136.540  0.00  0.00    -0.073 C 
ATOM     13  C   UNL     1     103.209  99.476 137.606  0.00  0.00    -0.015 C 
ATOM     14  C   UNL     1     105.640 100.894 137.021  0.00  0.00    -0.023 C 
ATOM     15  C   UNL     1     104.013  99.027 138.628  0.00  0.00    -0.004 C 
ATOM     16  C   UNL     1     105.976  97.027 138.107  0.00  0.00    +0.129 C 
ATOM     17  C   UNL     1     104.818 103.300 137.107  0.00  0.00    +0.039 C 
ATOM     18  C   UNL     1     104.128  99.832 139.888  0.00  0.00    +0.164 C 
ATOM     19  C   UNL     1     104.296  99.261 141.308  0.00  0.00    +0.086 C 
ATOM     20  C   UNL     1     105.162  95.739 137.708  0.00  0.00    +0.308 C 
ATOM     21  C   UNL     1     103.301  98.212 141.846  0.00  0.00    +0.132 C 
ATOM     22  C   UNL     1     105.735  99.158 141.797  0.00  0.00    +0.018 C 
ATOM     23  C   UNL     1     103.814  96.889 142.450  0.00  0.00    +0.032 C 
ATOM     24  C   UNL     1     103.848  94.831 139.463  0.00  0.00    +0.176 C 
ATOM     25  C   UNL     1     103.291  95.588 141.844  0.00  0.00    +0.006 C 
ATOM     26  C   UNL     1     104.329  94.992 140.906  0.00  0.00    +0.045 C 
ENDROOT
BRANCH  24  27
ATOM     27  C   UNL     1     103.063  93.508 139.291  0.00  0.00    +0.041 C 
ATOM     28  C   UNL     1     103.775  92.296 139.886  0.00  0.00    +0.007 C 
ENDBRANCH  24  27
BRANCH  10  29
ATOM     29  O   UNL     1     102.424 101.687 132.162  0.00  0.00    -0.345 OA
BRANCH  29  31
ATOM     30  O   UNL     1     102.687 100.703 129.955  0.00  0.00    -0.343 OA
ATOM     31  C   UNL     1     102.083 100.630 131.250  0.00  0.00    +0.282 C 
ATOM     32  C   UNL     1     100.580 100.272 131.190  0.00  0.00    +0.205 C 
ATOM     33  C   UNL     1      99.837 101.279 130.291  0.00  0.00    +0.183 C 
ATOM     34  C   UNL     1     102.061 101.520 128.965  0.00  0.00    +0.150 C 
ATOM     35  C   UNL     1     100.505 101.478 128.909  0.00  0.00    +0.178 C 
ATOM     36  C   UNL     1     102.657 101.127 127.615  0.00  0.00    +0.041 C 
BRANCH  32  37
ATOM     37  O   UNL     1     100.346  98.875 130.897  0.00  0.00    -0.372 OA
ATOM     38  C   UNL     1     101.159  97.885 131.503  0.00  0.00    +0.194 C 
ENDBRANCH  32  37
BRANCH  33  39
ATOM     39  O   UNL     1      98.405 101.138 130.270  0.00  0.00    -0.374 OA
ATOM     40  C   UNL     1      97.753 100.764 131.468  0.00  0.00    +0.194 C 
ENDBRANCH  33  39
BRANCH  35  41
ATOM     41  O   UNL     1      99.928 102.581 128.175  0.00  0.00    -0.375 OA
ATOM     42  C   UNL     1     100.436 103.884 128.427  0.00  0.00    +0.194 C 
ENDBRANCH  35  41
ENDBRANCH  29  31
ENDBRANCH  10  29
BRANCH  21  43
ATOM     43  O   UNL     1     102.216  98.053 140.950  0.00  0.00    -0.347 OA
BRANCH  43  45
ATOM     44  O   UNL     1      99.931  97.719 141.587  0.00  0.00    -0.347 OA
ATOM     45  C   UNL     1     100.986  98.655 141.401  0.00  0.00    +0.251 C 
ATOM     46  C   UNL     1     100.733  99.920 140.589  0.00  0.00    +0.063 C 
ATOM     47  C   UNL     1      99.639  99.771 139.560  0.00  0.00    +0.026 C 
ATOM     48  C   UNL     1      98.381  99.084 140.097  0.00  0.00    +0.085 C 
ATOM     49  C   UNL     1      98.718  97.765 140.833  0.00  0.00    +0.135 C 
ATOM     50  C   UNL     1      98.569  96.557 139.893  0.00  0.00    +0.039 C 
BRANCH  48  51
ATOM     51  N   UNL     1      97.488 100.013 140.840  0.00  0.00    -0.303 NA
ATOM     52  C   UNL     1      96.292 100.313 140.037  0.00  0.00    +0.105 C 
ATOM     53  C   UNL     1      97.062  99.561 142.165  0.00  0.00    +0.105 C 
ENDBRANCH  48  51
ENDBRANCH  43  45
ENDBRANCH  21  43
TORSDOF 9
ENDMDL
MODEL 13
REMARK VINA RESULT:      -7.6     35.600     40.331
REMARK  Name = 
REMARK  19 active torsions:
REMARK  status: ('A' for Active; 'I' for Inactive)
REMARK    1  A    between atoms: O_1  and  C_18
REMARK    2  A    between atoms: O_1  and  C_27
REMARK    3  A    between atoms: O_5  and  C_30
REMARK    4  A    between atoms: O_5  and  C_44
REMARK    5  A    between atoms: O_6  and  C_31
REMARK    6  A    between atoms: O_6  and  C_41
REMARK    7  A    between atoms: O_8  and  C_32
REMARK    8  A    between atoms: O_8  and  C_48
REMARK    9  A    between atoms: O_9  and  C_34
REMARK   10  A    between atoms: O_9  and  C_50
REMARK   11  A    between atoms: N_11  and  C_46
REMARK   12  A    between atoms: N_11  and  C_52
REMARK   13  A    between atoms: N_11  and  C_53
REMARK   14  A    between atoms: C_20  and  C_25
REMARK   15  A    between atoms: C_28  and  C_35
REMARK   16  A    between atoms: C_33  and  C_40
REMARK   17  A    between atoms: C_37  and  C_42
REMARK   18  A    between atoms: C_42  and  C_49
REMARK   19  A    between atoms: C_47  and  C_51
REMARK                            x       y       z     vdW  Elec       q    Type
REMARK                         _______ _______ _______ _____ _____    ______ ____
ROOT
ATOM      1  O   UNL     1     122.997 113.297 161.137  0.00  0.00    -0.292 OA
ATOM      2  O   UNL     1     123.958 113.788 154.812  0.00  0.00    -0.461 OA
ATOM      3  O   UNL     1     121.701 113.799 154.944  0.00  0.00    -0.251 OA
ATOM      4  C   UNL     1     118.757 113.865 158.949  0.00  0.00    +0.006 C 
ATOM      5  C   UNL     1     120.118 113.548 158.368  0.00  0.00    +0.023 C 
ATOM      6  C   UNL     1     118.826 113.669 160.442  0.00  0.00    +0.021 C 
ATOM      7  C   UNL     1     120.913 114.881 158.532  0.00  0.00    +0.027 C 
ATOM      8  C   UNL     1     117.534 113.151 158.418  0.00  0.00    +0.036 C 
ATOM      9  C   UNL     1     117.342 113.722 160.799  0.00  0.00    +0.039 C 
ATOM     10  C   UNL     1     116.733 112.850 159.682  0.00  0.00    +0.122 C 
ATOM     11  C   UNL     1     122.249 114.321 157.926  0.00  0.00    +0.040 C 
ATOM     12  C   UNL     1     119.882 114.645 160.950  0.00  0.00    -0.073 C 
ATOM     13  C   UNL     1     121.236 112.615 159.016  0.00  0.00    -0.015 C 
ATOM     14  C   UNL     1     120.782 115.239 160.096  0.00  0.00    -0.023 C 
ATOM     15  C   UNL     1     122.485 113.171 158.857  0.00  0.00    -0.004 C 
ATOM     16  C   UNL     1     122.961 114.990 156.715  0.00  0.00    +0.129 C 
ATOM     17  C   UNL     1     120.015 114.656 162.451  0.00  0.00    +0.039 C 
ATOM     18  C   UNL     1     123.462 113.133 159.994  0.00  0.00    +0.164 C 
ATOM     19  C   UNL     1     124.989 112.981 159.864  0.00  0.00    +0.086 C 
ATOM     20  C   UNL     1     122.786 114.140 155.400  0.00  0.00    +0.308 C 
ATOM     21  C   UNL     1     125.586 111.807 159.063  0.00  0.00    +0.132 C 
ATOM     22  C   UNL     1     125.768 114.290 159.852  0.00  0.00    +0.018 C 
ATOM     23  C   UNL     1     126.632 112.069 157.959  0.00  0.00    +0.032 C 
ATOM     24  C   UNL     1     124.420 112.445 155.108  0.00  0.00    +0.176 C 
ATOM     25  C   UNL     1     126.325 111.540 156.559  0.00  0.00    +0.006 C 
ATOM     26  C   UNL     1     125.825 112.668 155.670  0.00  0.00    +0.045 C 
ENDROOT
BRANCH  24  27
ATOM     27  C   UNL     1     124.474 111.578 153.827  0.00  0.00    +0.041 C 
ATOM     28  C   UNL     1     124.502 112.397 152.538  0.00  0.00    +0.007 C 
ENDBRANCH  24  27
BRANCH  10  29
ATOM     29  O   UNL     1     115.349 113.058 159.543  0.00  0.00    -0.345 OA
BRANCH  29  31
ATOM     30  O   UNL     1     114.383 110.829 159.447  0.00  0.00    -0.343 OA
ATOM     31  C   UNL     1     114.436 112.100 160.103  0.00  0.00    +0.282 C 
ATOM     32  C   UNL     1     113.034 112.652 160.453  0.00  0.00    +0.205 C 
ATOM     33  C   UNL     1     112.168 112.723 159.180  0.00  0.00    +0.183 C 
ATOM     34  C   UNL     1     113.541 110.697 158.302  0.00  0.00    +0.150 C 
ATOM     35  C   UNL     1     112.155 111.405 158.370  0.00  0.00    +0.178 C 
ATOM     36  C   UNL     1     113.368 109.202 158.040  0.00  0.00    +0.041 C 
BRANCH  32  37
ATOM     37  O   UNL     1     112.433 111.983 161.586  0.00  0.00    -0.372 OA
ATOM     38  C   UNL     1     112.041 112.739 162.719  0.00  0.00    +0.194 C 
ENDBRANCH  32  37
BRANCH  33  39
ATOM     39  O   UNL     1     110.887 113.357 159.349  0.00  0.00    -0.374 OA
ATOM     40  C   UNL     1     110.859 114.703 159.781  0.00  0.00    +0.194 C 
ENDBRANCH  33  39
BRANCH  35  41
ATOM     41  O   UNL     1     111.526 111.560 157.078  0.00  0.00    -0.375 OA
ATOM     42  C   UNL     1     110.278 110.916 156.866  0.00  0.00    +0.194 C 
ENDBRANCH  35  41
ENDBRANCH  29  31
ENDBRANCH  10  29
BRANCH  21  43
ATOM     43  O   UNL     1     124.571 110.894 158.689  0.00  0.00    -0.347 OA
BRANCH  43  45
ATOM     44  O   UNL     1     124.672 109.808 160.822  0.00  0.00    -0.347 OA
ATOM     45  C   UNL     1     124.606 109.646 159.410  0.00  0.00    +0.251 C 
ATOM     46  C   UNL     1     125.585 108.705 158.717  0.00  0.00    +0.063 C 
ATOM     47  C   UNL     1     126.889 108.535 159.457  0.00  0.00    +0.026 C 
ATOM     48  C   UNL     1     126.717 108.296 160.958  0.00  0.00    +0.085 C 
ATOM     49  C   UNL     1     125.776 109.343 161.601  0.00  0.00    +0.135 C 
ATOM     50  C   UNL     1     126.581 110.499 162.219  0.00  0.00    +0.039 C 
BRANCH  48  51
ATOM     51  N   UNL     1     126.403 106.879 161.285  0.00  0.00    -0.303 NA
ATOM     52  C   UNL     1     127.492 106.292 162.082  0.00  0.00    +0.105 C 
ATOM     53  C   UNL     1     125.137 106.654 161.984  0.00  0.00    +0.105 C 
ENDBRANCH  48  51
ENDBRANCH  43  45
ENDBRANCH  21  43
TORSDOF 9
ENDMDL
MODEL 14
REMARK VINA RESULT:      -7.5     29.692     33.504
REMARK  Name = 
REMARK  19 active torsions:
REMARK  status: ('A' for Active; 'I' for Inactive)
REMARK    1  A    between atoms: O_1  and  C_18
REMARK    2  A    between atoms: O_1  and  C_27
REMARK    3  A    between atoms: O_5  and  C_30
REMARK    4  A    between atoms: O_5  and  C_44
REMARK    5  A    between atoms: O_6  and  C_31
REMARK    6  A    between atoms: O_6  and  C_41
REMARK    7  A    between atoms: O_8  and  C_32
REMARK    8  A    between atoms: O_8  and  C_48
REMARK    9  A    between atoms: O_9  and  C_34
REMARK   10  A    between atoms: O_9  and  C_50
REMARK   11  A    between atoms: N_11  and  C_46
REMARK   12  A    between atoms: N_11  and  C_52
REMARK   13  A    between atoms: N_11  and  C_53
REMARK   14  A    between atoms: C_20  and  C_25
REMARK   15  A    between atoms: C_28  and  C_35
REMARK   16  A    between atoms: C_33  and  C_40
REMARK   17  A    between atoms: C_37  and  C_42
REMARK   18  A    between atoms: C_42  and  C_49
REMARK   19  A    between atoms: C_47  and  C_51
REMARK                            x       y       z     vdW  Elec       q    Type
REMARK                         _______ _______ _______ _____ _____    ______ ____
ROOT
ATOM      1  O   UNL     1     146.743 127.093 139.297  0.00  0.00    -0.292 OA
ATOM      2  O   UNL     1     149.719 132.649 138.093  0.00  0.00    -0.461 OA
ATOM      3  O   UNL     1     149.636 131.708 136.039  0.00  0.00    -0.251 OA
ATOM      4  C   UNL     1     147.433 127.505 134.559  0.00  0.00    +0.006 C 
ATOM      5  C   UNL     1     148.013 128.311 135.702  0.00  0.00    +0.023 C 
ATOM      6  C   UNL     1     146.798 126.264 135.134  0.00  0.00    +0.021 C 
ATOM      7  C   UNL     1     146.799 129.142 136.225  0.00  0.00    +0.027 C 
ATOM      8  C   UNL     1     148.320 127.108 133.401  0.00  0.00    +0.036 C 
ATOM      9  C   UNL     1     146.562 125.456 133.859  0.00  0.00    +0.039 C 
ATOM     10  C   UNL     1     147.896 125.670 133.116  0.00  0.00    +0.122 C 
ATOM     11  C   UNL     1     147.598 129.837 137.385  0.00  0.00    +0.040 C 
ATOM     12  C   UNL     1     145.703 126.746 136.079  0.00  0.00    -0.073 C 
ATOM     13  C   UNL     1     148.454 127.757 137.130  0.00  0.00    -0.015 C 
ATOM     14  C   UNL     1     145.659 128.047 136.525  0.00  0.00    -0.023 C 
ATOM     15  C   UNL     1     148.071 128.624 138.128  0.00  0.00    -0.004 C 
ATOM     16  C   UNL     1     147.683 131.384 137.529  0.00  0.00    +0.129 C 
ATOM     17  C   UNL     1     144.889 125.626 136.674  0.00  0.00    +0.039 C 
ATOM     18  C   UNL     1     147.494 128.080 139.400  0.00  0.00    +0.164 C 
ATOM     19  C   UNL     1     147.692 128.677 140.806  0.00  0.00    +0.086 C 
ATOM     20  C   UNL     1     149.105 131.925 137.121  0.00  0.00    +0.308 C 
ATOM     21  C   UNL     1     149.114 128.943 141.342  0.00  0.00    +0.132 C 
ATOM     22  C   UNL     1     146.594 129.628 141.264  0.00  0.00    +0.018 C 
ATOM     23  C   UNL     1     149.485 130.328 141.911  0.00  0.00    +0.032 C 
ATOM     24  C   UNL     1     150.694 131.921 138.884  0.00  0.00    +0.176 C 
ATOM     25  C   UNL     1     150.681 131.047 141.290  0.00  0.00    +0.006 C 
ATOM     26  C   UNL     1     150.205 132.117 140.320  0.00  0.00    +0.045 C 
ENDROOT
BRANCH  24  27
ATOM     27  C   UNL     1     152.112 132.513 138.702  0.00  0.00    +0.041 C 
ATOM     28  C   UNL     1     153.022 131.658 137.822  0.00  0.00    +0.007 C 
ENDBRANCH  24  27
BRANCH  10  29
ATOM     29  O   UNL     1     147.794 125.366 131.746  0.00  0.00    -0.345 OA
BRANCH  29  31
ATOM     30  O   UNL     1     150.132 124.706 131.651  0.00  0.00    -0.343 OA
ATOM     31  C   UNL     1     148.807 124.552 131.132  0.00  0.00    +0.282 C 
ATOM     32  C   UNL     1     148.771 124.511 129.587  0.00  0.00    +0.205 C 
ATOM     33  C   UNL     1     149.446 125.774 129.014  0.00  0.00    +0.183 C 
ATOM     34  C   UNL     1     150.934 125.774 131.147  0.00  0.00    +0.150 C 
ATOM     35  C   UNL     1     150.844 126.050 129.616  0.00  0.00    +0.178 C 
ATOM     36  C   UNL     1     152.376 125.487 131.557  0.00  0.00    +0.041 C 
BRANCH  32  37
ATOM     37  O   UNL     1     149.233 123.252 129.046  0.00  0.00    -0.372 OA
ATOM     38  C   UNL     1     148.441 122.566 128.091  0.00  0.00    +0.194 C 
ENDBRANCH  32  37
BRANCH  33  39
ATOM     39  O   UNL     1     149.348 125.923 127.586  0.00  0.00    -0.374 OA
ATOM     40  C   UNL     1     150.386 125.391 126.786  0.00  0.00    +0.194 C 
ENDBRANCH  33  39
BRANCH  35  41
ATOM     41  O   UNL     1     151.359 127.346 129.237  0.00  0.00    -0.375 OA
ATOM     42  C   UNL     1     150.676 128.497 129.716  0.00  0.00    +0.194 C 
ENDBRANCH  35  41
ENDBRANCH  29  31
ENDBRANCH  10  29
BRANCH  21  43
ATOM     43  O   UNL     1     150.084 128.403 140.465  0.00  0.00    -0.347 OA
BRANCH  43  45
ATOM     44  O   UNL     1     152.134 127.455 141.265  0.00  0.00    -0.347 OA
ATOM     45  C   UNL     1     150.758 127.236 140.978  0.00  0.00    +0.251 C 
ATOM     46  C   UNL     1     150.348 126.026 140.145  0.00  0.00    +0.063 C 
ATOM     47  C   UNL     1     151.423 125.551 139.198  0.00  0.00    +0.026 C 
ATOM     48  C   UNL     1     152.808 125.455 139.840  0.00  0.00    +0.085 C 
ATOM     49  C   UNL     1     153.183 126.753 140.594  0.00  0.00    +0.135 C 
ATOM     50  C   UNL     1     154.029 127.680 139.705  0.00  0.00    +0.039 C 
BRANCH  48  51
ATOM     51  N   UNL     1     153.001 124.197 140.611  0.00  0.00    -0.303 NA
ATOM     52  C   UNL     1     153.979 123.333 139.931  0.00  0.00    +0.105 C 
ATOM     53  C   UNL     1     153.413 124.365 142.006  0.00  0.00    +0.105 C 
ENDBRANCH  48  51
ENDBRANCH  43  45
ENDBRANCH  21  43
TORSDOF 9
ENDMDL
MODEL 15
REMARK VINA RESULT:      -7.5     77.119     80.444
REMARK  Name = 
REMARK  19 active torsions:
REMARK  status: ('A' for Active; 'I' for Inactive)
REMARK    1  A    between atoms: O_1  and  C_18
REMARK    2  A    between atoms: O_1  and  C_27
REMARK    3  A    between atoms: O_5  and  C_30
REMARK    4  A    between atoms: O_5  and  C_44
REMARK    5  A    between atoms: O_6  and  C_31
REMARK    6  A    between atoms: O_6  and  C_41
REMARK    7  A    between atoms: O_8  and  C_32
REMARK    8  A    between atoms: O_8  and  C_48
REMARK    9  A    between atoms: O_9  and  C_34
REMARK   10  A    between atoms: O_9  and  C_50
REMARK   11  A    between atoms: N_11  and  C_46
REMARK   12  A    between atoms: N_11  and  C_52
REMARK   13  A    between atoms: N_11  and  C_53
REMARK   14  A    between atoms: C_20  and  C_25
REMARK   15  A    between atoms: C_28  and  C_35
REMARK   16  A    between atoms: C_33  and  C_40
REMARK   17  A    between atoms: C_37  and  C_42
REMARK   18  A    between atoms: C_42  and  C_49
REMARK   19  A    between atoms: C_47  and  C_51
REMARK                            x       y       z     vdW  Elec       q    Type
REMARK                         _______ _______ _______ _____ _____    ______ ____
ROOT
ATOM      1  O   UNL     1     110.056 134.988  46.429  0.00  0.00    -0.292 OA
ATOM      2  O   UNL     1     109.119 138.365  41.054  0.00  0.00    -0.461 OA
ATOM      3  O   UNL     1     111.325 137.886  40.927  0.00  0.00    -0.251 OA
ATOM      4  C   UNL     1     114.130 135.038  43.882  0.00  0.00    +0.006 C 
ATOM      5  C   UNL     1     112.870 135.861  43.720  0.00  0.00    +0.023 C 
ATOM      6  C   UNL     1     114.077 134.357  45.225  0.00  0.00    +0.021 C 
ATOM      7  C   UNL     1     111.821 134.835  43.188  0.00  0.00    +0.027 C 
ATOM      8  C   UNL     1     115.480 135.701  43.722  0.00  0.00    +0.036 C 
ATOM      9  C   UNL     1     115.514 133.852  45.338  0.00  0.00    +0.039 C 
ATOM     10  C   UNL     1     116.304 135.083  44.847  0.00  0.00    +0.122 C 
ATOM     11  C   UNL     1     110.634 135.864  43.140  0.00  0.00    +0.040 C 
ATOM     12  C   UNL     1     112.838 133.468  45.203  0.00  0.00    -0.073 C 
ATOM     13  C   UNL     1     111.952 136.436  44.889  0.00  0.00    -0.015 C 
ATOM     14  C   UNL     1     111.851 133.634  44.259  0.00  0.00    -0.023 C 
ATOM     15  C   UNL     1     110.620 136.299  44.574  0.00  0.00    -0.004 C 
ATOM     16  C   UNL     1     109.823 136.141  41.842  0.00  0.00    +0.129 C 
ATOM     17  C   UNL     1     112.681 132.627  46.443  0.00  0.00    +0.039 C 
ATOM     18  C   UNL     1     109.652 135.852  45.629  0.00  0.00    +0.164 C 
ATOM     19  C   UNL     1     108.189 136.315  45.762  0.00  0.00    +0.086 C 
ATOM     20  C   UNL     1     110.187 137.542  41.221  0.00  0.00    +0.308 C 
ATOM     21  C   UNL     1     107.854 137.819  45.823  0.00  0.00    +0.132 C 
ATOM     22  C   UNL     1     107.162 135.406  45.098  0.00  0.00    +0.018 C 
ATOM     23  C   UNL     1     106.795 138.420  44.876  0.00  0.00    +0.032 C 
ATOM     24  C   UNL     1     108.932 139.356  42.098  0.00  0.00    +0.176 C 
ATOM     25  C   UNL     1     107.225 139.588  43.991  0.00  0.00    +0.006 C 
ATOM     26  C   UNL     1     107.502 139.102  42.577  0.00  0.00    +0.045 C 
ENDROOT
BRANCH  24  27
ATOM     27  C   UNL     1     109.075 140.791  41.536  0.00  0.00    +0.041 C 
ATOM     28  C   UNL     1     108.052 141.126  40.453  0.00  0.00    +0.007 C 
ENDBRANCH  24  27
BRANCH  10  29
ATOM     29  O   UNL     1     117.621 134.752  44.475  0.00  0.00    -0.345 OA
BRANCH  29  31
ATOM     30  O   UNL     1     118.412 136.371  46.108  0.00  0.00    -0.343 OA
ATOM     31  C   UNL     1     118.710 135.542  44.980  0.00  0.00    +0.282 C 
ATOM     32  C   UNL     1     119.544 136.276  43.904  0.00  0.00    +0.205 C 
ATOM     33  C   UNL     1     118.820 137.564  43.467  0.00  0.00    +0.183 C 
ATOM     34  C   UNL     1     117.826 137.651  45.869  0.00  0.00    +0.150 C 
ATOM     35  C   UNL     1     118.379 138.454  44.654  0.00  0.00    +0.178 C 
ATOM     36  C   UNL     1     117.968 138.459  47.157  0.00  0.00    +0.041 C 
BRANCH  32  37
ATOM     37  O   UNL     1     120.933 136.432  44.278  0.00  0.00    -0.372 OA
ATOM     38  C   UNL     1     121.641 135.331  44.822  0.00  0.00    +0.194 C 
ENDBRANCH  32  37
BRANCH  33  39
ATOM     39  O   UNL     1     119.426 138.262  42.365  0.00  0.00    -0.374 OA
ATOM     40  C   UNL     1     120.465 139.180  42.646  0.00  0.00    +0.194 C 
ENDBRANCH  33  39
BRANCH  35  41
ATOM     41  O   UNL     1     117.513 139.534  44.239  0.00  0.00    -0.375 OA
ATOM     42  C   UNL     1     117.959 140.864  44.460  0.00  0.00    +0.194 C 
ENDBRANCH  35  41
ENDBRANCH  29  31
ENDBRANCH  10  29
BRANCH  21  43
ATOM     43  O   UNL     1     109.038 138.588  45.925  0.00  0.00    -0.347 OA
BRANCH  43  45
ATOM     44  O   UNL     1     110.606 139.175  47.638  0.00  0.00    -0.347 OA
ATOM     45  C   UNL     1     109.246 139.180  47.223  0.00  0.00    +0.251 C 
ATOM     46  C   UNL     1     108.169 138.670  48.174  0.00  0.00    +0.063 C 
ATOM     47  C   UNL     1     108.673 137.652  49.168  0.00  0.00    +0.026 C 
ATOM     48  C   UNL     1     109.992 138.046  49.836  0.00  0.00    +0.085 C 
ATOM     49  C   UNL     1     111.057 138.471  48.797  0.00  0.00    +0.135 C 
ATOM     50  C   UNL     1     111.978 137.291  48.441  0.00  0.00    +0.039 C 
BRANCH  48  51
ATOM     51  N   UNL     1     109.805 138.989  50.971  0.00  0.00    -0.303 NA
ATOM     52  C   UNL     1     109.339 138.261  52.162  0.00  0.00    +0.105 C 
ATOM     53  C   UNL     1     110.979 139.784  51.337  0.00  0.00    +0.105 C 
ENDBRANCH  48  51
ENDBRANCH  43  45
ENDBRANCH  21  43
TORSDOF 9
ENDMDL
MODEL 16
REMARK VINA RESULT:      -7.4     54.421     58.048
REMARK  Name = 
REMARK  19 active torsions:
REMARK  status: ('A' for Active; 'I' for Inactive)
REMARK    1  A    between atoms: O_1  and  C_18
REMARK    2  A    between atoms: O_1  and  C_27
REMARK    3  A    between atoms: O_5  and  C_30
REMARK    4  A    between atoms: O_5  and  C_44
REMARK    5  A    between atoms: O_6  and  C_31
REMARK    6  A    between atoms: O_6  and  C_41
REMARK    7  A    between atoms: O_8  and  C_32
REMARK    8  A    between atoms: O_8  and  C_48
REMARK    9  A    between atoms: O_9  and  C_34
REMARK   10  A    between atoms: O_9  and  C_50
REMARK   11  A    between atoms: N_11  and  C_46
REMARK   12  A    between atoms: N_11  and  C_52
REMARK   13  A    between atoms: N_11  and  C_53
REMARK   14  A    between atoms: C_20  and  C_25
REMARK   15  A    between atoms: C_28  and  C_35
REMARK   16  A    between atoms: C_33  and  C_40
REMARK   17  A    between atoms: C_37  and  C_42
REMARK   18  A    between atoms: C_42  and  C_49
REMARK   19  A    between atoms: C_47  and  C_51
REMARK                            x       y       z     vdW  Elec       q    Type
REMARK                         _______ _______ _______ _____ _____    ______ ____
ROOT
ATOM      1  O   UNL     1     111.693 119.409  69.333  0.00  0.00    -0.292 OA
ATOM      2  O   UNL     1     108.879 113.934  67.521  0.00  0.00    -0.461 OA
ATOM      3  O   UNL     1     110.879 113.203  68.280  0.00  0.00    -0.251 OA
ATOM      4  C   UNL     1     114.546 115.722  70.497  0.00  0.00    +0.006 C 
ATOM      5  C   UNL     1     113.323 115.764  69.607  0.00  0.00    +0.023 C 
ATOM      6  C   UNL     1     114.984 117.140  70.761  0.00  0.00    +0.021 C 
ATOM      7  C   UNL     1     112.142 115.971  70.606  0.00  0.00    +0.027 C 
ATOM      8  C   UNL     1     115.749 114.909  70.076  0.00  0.00    +0.036 C 
ATOM      9  C   UNL     1     116.357 116.896  71.384  0.00  0.00    +0.039 C 
ATOM     10  C   UNL     1     116.924 115.809  70.447  0.00  0.00    +0.122 C 
ATOM     11  C   UNL     1     111.030 116.025  69.496  0.00  0.00    +0.040 C 
ATOM     12  C   UNL     1     113.815 117.823  71.463  0.00  0.00    -0.073 C 
ATOM     13  C   UNL     1     112.904 116.942  68.618  0.00  0.00    -0.015 C 
ATOM     14  C   UNL     1     112.552 117.278  71.451  0.00  0.00    -0.023 C 
ATOM     15  C   UNL     1     111.548 117.167  68.676  0.00  0.00    -0.004 C 
ATOM     16  C   UNL     1     109.802 115.072  69.500  0.00  0.00    +0.129 C 
ATOM     17  C   UNL     1     114.117 119.235  71.894  0.00  0.00    +0.039 C 
ATOM     18  C   UNL     1     111.032 118.575  68.687  0.00  0.00    +0.164 C 
ATOM     19  C   UNL     1     109.725 119.059  68.032  0.00  0.00    +0.086 C 
ATOM     20  C   UNL     1     109.925 113.965  68.386  0.00  0.00    +0.308 C 
ATOM     21  C   UNL     1     109.450 118.768  66.543  0.00  0.00    +0.132 C 
ATOM     22  C   UNL     1     108.517 119.105  68.959  0.00  0.00    +0.018 C 
ATOM     23  C   UNL     1     108.123 118.111  66.109  0.00  0.00    +0.032 C 
ATOM     24  C   UNL     1     109.098 114.621  66.261  0.00  0.00    +0.176 C 
ATOM     25  C   UNL     1     108.208 116.820  65.299  0.00  0.00    +0.006 C 
ATOM     26  C   UNL     1     107.942 115.620  66.194  0.00  0.00    +0.045 C 
ENDROOT
BRANCH  24  27
ATOM     27  C   UNL     1     109.038 113.633  65.071  0.00  0.00    +0.041 C 
ATOM     28  C   UNL     1     110.411 113.137  64.621  0.00  0.00    +0.007 C 
ENDBRANCH  24  27
BRANCH  10  29
ATOM     29  O   UNL     1     118.008 115.124  71.025  0.00  0.00    -0.345 OA
BRANCH  29  31
ATOM     30  O   UNL     1     118.092 115.172  73.455  0.00  0.00    -0.343 OA
ATOM     31  C   UNL     1     117.812 114.426  72.266  0.00  0.00    +0.282 C 
ATOM     32  C   UNL     1     118.388 112.991  72.312  0.00  0.00    +0.205 C 
ATOM     33  C   UNL     1     119.904 113.044  72.587  0.00  0.00    +0.183 C 
ATOM     34  C   UNL     1     119.444 115.237  73.908  0.00  0.00    +0.150 C 
ATOM     35  C   UNL     1     120.278 113.924  73.804  0.00  0.00    +0.178 C 
ATOM     36  C   UNL     1     119.413 115.740  75.349  0.00  0.00    +0.041 C 
BRANCH  32  37
ATOM     37  O   UNL     1     117.626 112.106  73.163  0.00  0.00    -0.372 OA
ATOM     38  C   UNL     1     116.213 112.073  73.055  0.00  0.00    +0.194 C 
ENDBRANCH  32  37
BRANCH  33  39
ATOM     39  O   UNL     1     120.583 111.778  72.510  0.00  0.00    -0.374 OA
ATOM     40  C   UNL     1     121.499 111.575  71.451  0.00  0.00    +0.194 C 
ENDBRANCH  33  39
BRANCH  35  41
ATOM     41  O   UNL     1     121.703 114.141  73.908  0.00  0.00    -0.375 OA
ATOM     42  C   UNL     1     122.311 115.017  72.969  0.00  0.00    +0.194 C 
ENDBRANCH  35  41
ENDBRANCH  29  31
ENDBRANCH  10  29
BRANCH  21  43
ATOM     43  O   UNL     1     110.596 118.211  65.926  0.00  0.00    -0.347 OA
BRANCH  43  45
ATOM     44  O   UNL     1     112.605 119.206  65.083  0.00  0.00    -0.347 OA
ATOM     45  C   UNL     1     111.199 119.060  64.928  0.00  0.00    +0.251 C 
ATOM     46  C   UNL     1     110.331 120.301  64.749  0.00  0.00    +0.063 C 
ATOM     47  C   UNL     1     110.918 121.545  65.369  0.00  0.00    +0.026 C 
ATOM     48  C   UNL     1     112.403 121.744  65.059  0.00  0.00    +0.085 C 
ATOM     49  C   UNL     1     113.226 120.466  65.347  0.00  0.00    +0.135 C 
ATOM     50  C   UNL     1     113.857 120.523  66.748  0.00  0.00    +0.039 C 
BRANCH  48  51
ATOM     51  N   UNL     1     112.636 122.359  63.724  0.00  0.00    -0.303 NA
ATOM     52  C   UNL     1     113.250 123.687  63.881  0.00  0.00    +0.105 C 
ATOM     53  C   UNL     1     113.450 121.573  62.796  0.00  0.00    +0.105 C 
ENDBRANCH  48  51
ENDBRANCH  43  45
ENDBRANCH  21  43
TORSDOF 9
ENDMDL
MODEL 17
REMARK VINA RESULT:      -7.3     29.232     32.656
REMARK  Name = 
REMARK  19 active torsions:
REMARK  status: ('A' for Active; 'I' for Inactive)
REMARK    1  A    between atoms: O_1  and  C_18
REMARK    2  A    between atoms: O_1  and  C_27
REMARK    3  A    between atoms: O_5  and  C_30
REMARK    4  A    between atoms: O_5  and  C_44
REMARK    5  A    between atoms: O_6  and  C_31
REMARK    6  A    between atoms: O_6  and  C_41
REMARK    7  A    between atoms: O_8  and  C_32
REMARK    8  A    between atoms: O_8  and  C_48
REMARK    9  A    between atoms: O_9  and  C_34
REMARK   10  A    between atoms: O_9  and  C_50
REMARK   11  A    between atoms: N_11  and  C_46
REMARK   12  A    between atoms: N_11  and  C_52
REMARK   13  A    between atoms: N_11  and  C_53
REMARK   14  A    between atoms: C_20  and  C_25
REMARK   15  A    between atoms: C_28  and  C_35
REMARK   16  A    between atoms: C_33  and  C_40
REMARK   17  A    between atoms: C_37  and  C_42
REMARK   18  A    between atoms: C_42  and  C_49
REMARK   19  A    between atoms: C_47  and  C_51
REMARK                            x       y       z     vdW  Elec       q    Type
REMARK                         _______ _______ _______ _____ _____    ______ ____
ROOT
ATOM      1  O   UNL     1     126.875 125.059 154.240  0.00  0.00    -0.292 OA
ATOM      2  O   UNL     1     127.720 118.844 152.887  0.00  0.00    -0.461 OA
ATOM      3  O   UNL     1     129.527 119.293 154.169  0.00  0.00    -0.251 OA
ATOM      4  C   UNL     1     130.725 123.447 156.621  0.00  0.00    +0.006 C 
ATOM      5  C   UNL     1     129.934 122.807 155.501  0.00  0.00    +0.023 C 
ATOM      6  C   UNL     1     130.321 124.897 156.713  0.00  0.00    +0.021 C 
ATOM      7  C   UNL     1     128.582 122.416 156.174  0.00  0.00    +0.027 C 
ATOM      8  C   UNL     1     132.234 123.360 156.615  0.00  0.00    +0.036 C 
ATOM      9  C   UNL     1     131.408 125.430 157.644  0.00  0.00    +0.039 C 
ATOM     10  C   UNL     1     132.664 124.755 157.058  0.00  0.00    +0.122 C 
ATOM     11  C   UNL     1     127.939 121.834 154.864  0.00  0.00    +0.040 C 
ATOM     12  C   UNL     1     128.827 124.904 157.019  0.00  0.00    -0.073 C 
ATOM     13  C   UNL     1     129.281 123.551 154.251  0.00  0.00    -0.015 C 
ATOM     14  C   UNL     1     128.051 123.783 156.838  0.00  0.00    -0.023 C 
ATOM     15  C   UNL     1     128.031 123.041 153.981  0.00  0.00    -0.004 C 
ATOM     16  C   UNL     1     127.387 120.383 154.780  0.00  0.00    +0.129 C 
ATOM     17  C   UNL     1     128.268 126.285 157.244  0.00  0.00    +0.039 C 
ATOM     18  C   UNL     1     126.912 123.975 153.630  0.00  0.00    +0.164 C 
ATOM     19  C   UNL     1     125.771 123.679 152.638  0.00  0.00    +0.086 C 
ATOM     20  C   UNL     1     128.335 119.452 153.934  0.00  0.00    +0.308 C 
ATOM     21  C   UNL     1     126.092 123.221 151.201  0.00  0.00    +0.132 C 
ATOM     22  C   UNL     1     124.495 123.133 153.266  0.00  0.00    +0.018 C 
ATOM     23  C   UNL     1     125.433 121.951 150.623  0.00  0.00    +0.032 C 
ATOM     24  C   UNL     1     127.909 119.486 151.600  0.00  0.00    +0.176 C 
ATOM     25  C   UNL     1     126.358 120.857 150.093  0.00  0.00    +0.006 C 
ATOM     26  C   UNL     1     126.480 119.735 151.112  0.00  0.00    +0.045 C 
ENDROOT
BRANCH  24  27
ATOM     27  C   UNL     1     128.668 118.559 150.620  0.00  0.00    +0.041 C 
ATOM     28  C   UNL     1     127.952 117.236 150.354  0.00  0.00    +0.007 C 
ENDBRANCH  24  27
BRANCH  10  29
ATOM     29  O   UNL     1     133.740 124.760 157.965  0.00  0.00    -0.345 OA
BRANCH  29  31
ATOM     30  O   UNL     1     135.584 123.879 156.649  0.00  0.00    -0.343 OA
ATOM     31  C   UNL     1     135.076 124.938 157.467  0.00  0.00    +0.282 C 
ATOM     32  C   UNL     1     136.105 125.437 158.507  0.00  0.00    +0.205 C 
ATOM     33  C   UNL     1     136.591 124.256 159.371  0.00  0.00    +0.183 C 
ATOM     34  C   UNL     1     136.166 122.747 157.296  0.00  0.00    +0.150 C 
ATOM     35  C   UNL     1     137.059 123.037 158.539  0.00  0.00    +0.178 C 
ATOM     36  C   UNL     1     136.953 121.978 156.237  0.00  0.00    +0.041 C 
BRANCH  32  37
ATOM     37  O   UNL     1     137.143 126.257 157.923  0.00  0.00    -0.372 OA
ATOM     38  C   UNL     1     137.006 126.719 156.590  0.00  0.00    +0.194 C 
ENDBRANCH  32  37
BRANCH  33  39
ATOM     39  O   UNL     1     137.445 124.616 160.472  0.00  0.00    -0.374 OA
ATOM     40  C   UNL     1     137.066 124.208 161.772  0.00  0.00    +0.194 C 
ENDBRANCH  33  39
BRANCH  35  41
ATOM     41  O   UNL     1     137.295 121.871 159.360  0.00  0.00    -0.375 OA
ATOM     42  C   UNL     1     136.167 121.122 159.789  0.00  0.00    +0.194 C 
ENDBRANCH  35  41
ENDBRANCH  29  31
ENDBRANCH  10  29
BRANCH  21  43
ATOM     43  O   UNL     1     127.482 123.313 150.949  0.00  0.00    -0.347 OA
BRANCH  43  45
ATOM     44  O   UNL     1     127.613 125.687 150.659  0.00  0.00    -0.347 OA
ATOM     45  C   UNL     1     127.853 124.408 150.087  0.00  0.00    +0.251 C 
ATOM     46  C   UNL     1     127.358 124.111 148.676  0.00  0.00    +0.063 C 
ATOM     47  C   UNL     1     126.153 124.926 148.273  0.00  0.00    +0.026 C 
ATOM     48  C   UNL     1     126.275 126.412 148.618  0.00  0.00    +0.085 C 
ATOM     49  C   UNL     1     126.700 126.628 150.090  0.00  0.00    +0.135 C 
ATOM     50  C   UNL     1     125.473 126.865 150.986  0.00  0.00    +0.039 C 
BRANCH  48  51
ATOM     51  N   UNL     1     127.065 127.175 147.613  0.00  0.00    -0.303 NA
ATOM     52  C   UNL     1     126.190 128.107 146.885  0.00  0.00    +0.105 C 
ATOM     53  C   UNL     1     128.210 127.920 148.139  0.00  0.00    +0.105 C 
ENDBRANCH  48  51
ENDBRANCH  43  45
ENDBRANCH  21  43
TORSDOF 9
ENDMDL
MODEL 18
REMARK VINA RESULT:      -7.3     28.854     32.840
REMARK  Name = 
REMARK  19 active torsions:
REMARK  status: ('A' for Active; 'I' for Inactive)
REMARK    1  A    between atoms: O_1  and  C_18
REMARK    2  A    between atoms: O_1  and  C_27
REMARK    3  A    between atoms: O_5  and  C_30
REMARK    4  A    between atoms: O_5  and  C_44
REMARK    5  A    between atoms: O_6  and  C_31
REMARK    6  A    between atoms: O_6  and  C_41
REMARK    7  A    between atoms: O_8  and  C_32
REMARK    8  A    between atoms: O_8  and  C_48
REMARK    9  A    between atoms: O_9  and  C_34
REMARK   10  A    between atoms: O_9  and  C_50
REMARK   11  A    between atoms: N_11  and  C_46
REMARK   12  A    between atoms: N_11  and  C_52
REMARK   13  A    between atoms: N_11  and  C_53
REMARK   14  A    between atoms: C_20  and  C_25
REMARK   15  A    between atoms: C_28  and  C_35
REMARK   16  A    between atoms: C_33  and  C_40
REMARK   17  A    between atoms: C_37  and  C_42
REMARK   18  A    between atoms: C_42  and  C_49
REMARK   19  A    between atoms: C_47  and  C_51
REMARK                            x       y       z     vdW  Elec       q    Type
REMARK                         _______ _______ _______ _____ _____    ______ ____
ROOT
ATOM      1  O   UNL     1     113.244 123.746 159.881  0.00  0.00    -0.292 OA
ATOM      2  O   UNL     1     109.118 128.238 157.891  0.00  0.00    -0.461 OA
ATOM      3  O   UNL     1     109.369 126.978 156.031  0.00  0.00    -0.251 OA
ATOM      4  C   UNL     1     111.868 122.729 155.391  0.00  0.00    +0.006 C 
ATOM      5  C   UNL     1     111.678 123.990 156.206  0.00  0.00    +0.023 C 
ATOM      6  C   UNL     1     112.883 121.863 156.094  0.00  0.00    +0.021 C 
ATOM      7  C   UNL     1     110.625 123.583 157.283  0.00  0.00    +0.027 C 
ATOM      8  C   UNL     1     112.242 122.833 153.930  0.00  0.00    +0.036 C 
ATOM      9  C   UNL     1     113.167 120.829 155.006  0.00  0.00    +0.039 C 
ATOM     10  C   UNL     1     113.281 121.729 153.759  0.00  0.00    +0.122 C 
ATOM     11  C   UNL     1     110.621 124.978 158.006  0.00  0.00    +0.040 C 
ATOM     12  C   UNL     1     112.296 121.549 157.466  0.00  0.00    -0.073 C 
ATOM     13  C   UNL     1     112.719 124.626 157.233  0.00  0.00    -0.015 C 
ATOM     14  C   UNL     1     111.247 122.274 157.982  0.00  0.00    -0.023 C 
ATOM     15  C   UNL     1     112.074 125.083 158.359  0.00  0.00    -0.004 C 
ATOM     16  C   UNL     1     109.321 125.806 158.214  0.00  0.00    +0.129 C 
ATOM     17  C   UNL     1     113.142 120.602 158.277  0.00  0.00    +0.039 C 
ATOM     18  C   UNL     1     112.680 124.842 159.709  0.00  0.00    +0.164 C 
ATOM     19  C   UNL     1     112.603 125.798 160.913  0.00  0.00    +0.086 C 
ATOM     20  C   UNL     1     109.267 127.050 157.250  0.00  0.00    +0.308 C 
ATOM     21  C   UNL     1     113.047 127.268 160.767  0.00  0.00    +0.132 C 
ATOM     22  C   UNL     1     111.469 125.515 161.890  0.00  0.00    +0.018 C 
ATOM     23  C   UNL     1     112.111 128.411 161.211  0.00  0.00    +0.032 C 
ATOM     24  C   UNL     1     110.342 128.989 158.097  0.00  0.00    +0.176 C 
ATOM     25  C   UNL     1     111.759 129.475 160.173  0.00  0.00    +0.006 C 
ATOM     26  C   UNL     1     110.370 129.218 159.609  0.00  0.00    +0.045 C 
ENDROOT
BRANCH  24  27
ATOM     27  C   UNL     1     110.303 130.338 157.339  0.00  0.00    +0.041 C 
ATOM     28  C   UNL     1     109.082 131.191 157.676  0.00  0.00    +0.007 C 
ENDBRANCH  24  27
BRANCH  10  29
ATOM     29  O   UNL     1     113.145 120.997 152.565  0.00  0.00    -0.345 OA
BRANCH  29  31
ATOM     30  O   UNL     1     112.077 121.533 150.448  0.00  0.00    -0.343 OA
ATOM     31  C   UNL     1     113.210 121.690 151.307  0.00  0.00    +0.282 C 
ATOM     32  C   UNL     1     114.554 121.562 150.554  0.00  0.00    +0.205 C 
ATOM     33  C   UNL     1     114.610 120.215 149.807  0.00  0.00    +0.183 C 
ATOM     34  C   UNL     1     112.022 120.380 149.608  0.00  0.00    +0.150 C 
ATOM     35  C   UNL     1     113.359 119.942 148.938  0.00  0.00    +0.178 C 
ATOM     36  C   UNL     1     110.953 120.643 148.550  0.00  0.00    +0.041 C 
BRANCH  32  37
ATOM     37  O   UNL     1     114.870 122.732 149.764  0.00  0.00    -0.372 OA
ATOM     38  C   UNL     1     116.069 123.445 150.015  0.00  0.00    +0.194 C 
ENDBRANCH  32  37
BRANCH  33  39
ATOM     39  O   UNL     1     115.872 119.913 149.184  0.00  0.00    -0.374 OA
ATOM     40  C   UNL     1     116.608 118.806 149.668  0.00  0.00    +0.194 C 
ENDBRANCH  33  39
BRANCH  35  41
ATOM     41  O   UNL     1     113.328 118.589 148.429  0.00  0.00    -0.375 OA
ATOM     42  C   UNL     1     113.356 118.410 147.021  0.00  0.00    +0.194 C 
ENDBRANCH  35  41
ENDBRANCH  29  31
ENDBRANCH  10  29
BRANCH  21  43
ATOM     43  O   UNL     1     113.656 127.479 159.507  0.00  0.00    -0.347 OA
BRANCH  43  45
ATOM     44  O   UNL     1     115.716 127.753 158.316  0.00  0.00    -0.347 OA
ATOM     45  C   UNL     1     115.061 127.795 159.577  0.00  0.00    +0.251 C 
ATOM     46  C   UNL     1     115.671 127.059 160.765  0.00  0.00    +0.063 C 
ATOM     47  C   UNL     1     116.520 125.875 160.372  0.00  0.00    +0.026 C 
ATOM     48  C   UNL     1     117.490 126.169 159.226  0.00  0.00    +0.085 C 
ATOM     49  C   UNL     1     116.777 126.839 158.027  0.00  0.00    +0.135 C 
ATOM     50  C   UNL     1     116.376 125.794 156.973  0.00  0.00    +0.039 C 
BRANCH  48  51
ATOM     51  N   UNL     1     118.734 126.847 159.682  0.00  0.00    -0.303 NA
ATOM     52  C   UNL     1     119.901 125.988 159.426  0.00  0.00    +0.105 C 
ATOM     53  C   UNL     1     118.987 128.167 159.101  0.00  0.00    +0.105 C 
ENDBRANCH  48  51
ENDBRANCH  43  45
ENDBRANCH  21  43
TORSDOF 9
ENDMDL
MODEL 19
REMARK VINA RESULT:      -7.3     78.994     82.655
REMARK  Name = 
REMARK  19 active torsions:
REMARK  status: ('A' for Active; 'I' for Inactive)
REMARK    1  A    between atoms: O_1  and  C_18
REMARK    2  A    between atoms: O_1  and  C_27
REMARK    3  A    between atoms: O_5  and  C_30
REMARK    4  A    between atoms: O_5  and  C_44
REMARK    5  A    between atoms: O_6  and  C_31
REMARK    6  A    between atoms: O_6  and  C_41
REMARK    7  A    between atoms: O_8  and  C_32
REMARK    8  A    between atoms: O_8  and  C_48
REMARK    9  A    between atoms: O_9  and  C_34
REMARK   10  A    between atoms: O_9  and  C_50
REMARK   11  A    between atoms: N_11  and  C_46
REMARK   12  A    between atoms: N_11  and  C_52
REMARK   13  A    between atoms: N_11  and  C_53
REMARK   14  A    between atoms: C_20  and  C_25
REMARK   15  A    between atoms: C_28  and  C_35
REMARK   16  A    between atoms: C_33  and  C_40
REMARK   17  A    between atoms: C_37  and  C_42
REMARK   18  A    between atoms: C_42  and  C_49
REMARK   19  A    between atoms: C_47  and  C_51
REMARK                            x       y       z     vdW  Elec       q    Type
REMARK                         _______ _______ _______ _____ _____    ______ ____
ROOT
ATOM      1  O   UNL     1     107.953 112.074  42.402  0.00  0.00    -0.292 OA
ATOM      2  O   UNL     1     107.006 116.571  46.880  0.00  0.00    -0.461 OA
ATOM      3  O   UNL     1     107.937 114.899  48.085  0.00  0.00    -0.251 OA
ATOM      4  C   UNL     1     109.806 110.551  46.565  0.00  0.00    +0.006 C 
ATOM      5  C   UNL     1     108.886 111.718  46.277  0.00  0.00    +0.023 C 
ATOM      6  C   UNL     1     109.840 109.667  45.344  0.00  0.00    +0.021 C 
ATOM      7  C   UNL     1     109.800 112.739  45.530  0.00  0.00    +0.027 C 
ATOM      8  C   UNL     1     109.563 109.692  47.785  0.00  0.00    +0.036 C 
ATOM      9  C   UNL     1     110.535 108.432  45.915  0.00  0.00    +0.039 C 
ATOM     10  C   UNL     1     109.812 108.278  47.268  0.00  0.00    +0.122 C 
ATOM     11  C   UNL     1     108.665 113.801  45.305  0.00  0.00    +0.040 C 
ATOM     12  C   UNL     1     110.382 110.529  44.209  0.00  0.00    -0.073 C 
ATOM     13  C   UNL     1     107.701 111.756  45.212  0.00  0.00    -0.015 C 
ATOM     14  C   UNL     1     110.424 111.901  44.306  0.00  0.00    -0.023 C 
ATOM     15  C   UNL     1     107.680 112.961  44.550  0.00  0.00    -0.004 C 
ATOM     16  C   UNL     1     108.793 115.274  45.789  0.00  0.00    +0.129 C 
ATOM     17  C   UNL     1     110.578 109.771  42.922  0.00  0.00    +0.039 C 
ATOM     18  C   UNL     1     107.437 112.989  43.070  0.00  0.00    +0.164 C 
ATOM     19  C   UNL     1     106.672 114.084  42.304  0.00  0.00    +0.086 C 
ATOM     20  C   UNL     1     107.885 115.549  47.048  0.00  0.00    +0.308 C 
ATOM     21  C   UNL     1     105.245 114.480  42.736  0.00  0.00    +0.132 C 
ATOM     22  C   UNL     1     107.542 115.184  41.710  0.00  0.00    +0.018 C 
ATOM     23  C   UNL     1     104.890 115.960  42.987  0.00  0.00    +0.032 C 
ATOM     24  C   UNL     1     105.656 116.174  46.526  0.00  0.00    +0.176 C 
ATOM     25  C   UNL     1     104.311 116.323  44.353  0.00  0.00    +0.006 C 
ATOM     26  C   UNL     1     105.388 116.942  45.231  0.00  0.00    +0.045 C 
ENDROOT
BRANCH  24  27
ATOM     27  C   UNL     1     104.648 116.586  47.626  0.00  0.00    +0.041 C 
ATOM     28  C   UNL     1     104.337 115.466  48.617  0.00  0.00    +0.007 C 
ENDBRANCH  24  27
BRANCH  10  29
ATOM     29  O   UNL     1     110.530 107.462  48.161  0.00  0.00    -0.345 OA
BRANCH  29  31
ATOM     30  O   UNL     1     111.209 107.142  50.474  0.00  0.00    -0.343 OA
ATOM     31  C   UNL     1     110.160 107.450  49.550  0.00  0.00    +0.282 C 
ATOM     32  C   UNL     1     108.842 106.710  49.874  0.00  0.00    +0.205 C 
ATOM     33  C   UNL     1     109.095 105.191  49.935  0.00  0.00    +0.183 C 
ATOM     34  C   UNL     1     111.506 105.768  50.723  0.00  0.00    +0.150 C 
ATOM     35  C   UNL     1     110.288 104.802  50.841  0.00  0.00    +0.178 C 
ATOM     36  C   UNL     1     112.358 105.713  51.989  0.00  0.00    +0.041 C 
BRANCH  32  37
ATOM     37  O   UNL     1     108.142 107.276  51.006  0.00  0.00    -0.372 OA
ATOM     38  C   UNL     1     108.048 108.684  51.140  0.00  0.00    +0.194 C 
ENDBRANCH  32  37
BRANCH  33  39
ATOM     39  O   UNL     1     107.916 104.380  50.087  0.00  0.00    -0.374 OA
ATOM     40  C   UNL     1     106.859 104.560  49.164  0.00  0.00    +0.194 C 
ENDBRANCH  33  39
BRANCH  35  41
ATOM     41  O   UNL     1     110.648 103.409  50.709  0.00  0.00    -0.375 OA
ATOM     42  C   UNL     1     111.312 103.005  49.520  0.00  0.00    +0.194 C 
ENDBRANCH  35  41
ENDBRANCH  29  31
ENDBRANCH  10  29
BRANCH  21  43
ATOM     43  O   UNL     1     104.765 113.596  43.732  0.00  0.00    -0.347 OA
BRANCH  43  45
ATOM     44  O   UNL     1     104.231 111.491  42.722  0.00  0.00    -0.347 OA
ATOM     45  C   UNL     1     103.730 112.701  43.277  0.00  0.00    +0.251 C 
ATOM     46  C   UNL     1     102.689 113.505  42.507  0.00  0.00    +0.063 C 
ATOM     47  C   UNL     1     102.753 113.307  41.013  0.00  0.00    +0.026 C 
ATOM     48  C   UNL     1     102.878 111.841  40.593  0.00  0.00    +0.085 C 
ATOM     49  C   UNL     1     104.011 111.118  41.360  0.00  0.00    +0.135 C 
ATOM     50  C   UNL     1     105.312 111.113  40.539  0.00  0.00    +0.039 C 
BRANCH  48  51
ATOM     51  N   UNL     1     101.570 111.131  40.581  0.00  0.00    -0.303 NA
ATOM     52  C   UNL     1     100.980 111.181  39.234  0.00  0.00    +0.105 C 
ATOM     53  C   UNL     1     101.600 109.737  41.028  0.00  0.00    +0.105 C 
ENDBRANCH  48  51
ENDBRANCH  43  45
ENDBRANCH  21  43
TORSDOF 9
ENDMDL
MODEL 20
REMARK VINA RESULT:      -7.3     34.573     38.881
REMARK  Name = 
REMARK  19 active torsions:
REMARK  status: ('A' for Active; 'I' for Inactive)
REMARK    1  A    between atoms: O_1  and  C_18
REMARK    2  A    between atoms: O_1  and  C_27
REMARK    3  A    between atoms: O_5  and  C_30
REMARK    4  A    between atoms: O_5  and  C_44
REMARK    5  A    between atoms: O_6  and  C_31
REMARK    6  A    between atoms: O_6  and  C_41
REMARK    7  A    between atoms: O_8  and  C_32
REMARK    8  A    between atoms: O_8  and  C_48
REMARK    9  A    between atoms: O_9  and  C_34
REMARK   10  A    between atoms: O_9  and  C_50
REMARK   11  A    between atoms: N_11  and  C_46
REMARK   12  A    between atoms: N_11  and  C_52
REMARK   13  A    between atoms: N_11  and  C_53
REMARK   14  A    between atoms: C_20  and  C_25
REMARK   15  A    between atoms: C_28  and  C_35
REMARK   16  A    between atoms: C_33  and  C_40
REMARK   17  A    between atoms: C_37  and  C_42
REMARK   18  A    between atoms: C_42  and  C_49
REMARK   19  A    between atoms: C_47  and  C_51
REMARK                            x       y       z     vdW  Elec       q    Type
REMARK                         _______ _______ _______ _____ _____    ______ ____
ROOT
ATOM      1  O   UNL     1     115.883 117.124 162.415  0.00  0.00    -0.292 OA
ATOM      2  O   UNL     1     115.432 116.327 156.064  0.00  0.00    -0.461 OA
ATOM      3  O   UNL     1     114.336 118.281 156.369  0.00  0.00    -0.251 OA
ATOM      4  C   UNL     1     113.763 120.987 160.499  0.00  0.00    +0.006 C 
ATOM      5  C   UNL     1     114.058 119.634 159.888  0.00  0.00    +0.023 C 
ATOM      6  C   UNL     1     113.952 120.880 161.991  0.00  0.00    +0.021 C 
ATOM      7  C   UNL     1     115.610 119.632 159.718  0.00  0.00    +0.027 C 
ATOM      8  C   UNL     1     112.438 121.659 160.221  0.00  0.00    +0.036 C 
ATOM      9  C   UNL     1     113.326 122.197 162.446  0.00  0.00    +0.039 C 
ATOM     10  C   UNL     1     112.051 122.240 161.578  0.00  0.00    +0.122 C 
ATOM     11  C   UNL     1     115.683 118.176 159.133  0.00  0.00    +0.040 C 
ATOM     12  C   UNL     1     115.408 120.483 162.208  0.00  0.00    -0.073 C 
ATOM     13  C   UNL     1     113.976 118.220 160.619  0.00  0.00    -0.015 C 
ATOM     14  C   UNL     1     116.177 119.981 161.184  0.00  0.00    -0.023 C 
ATOM     15  C   UNL     1     115.035 117.421 160.254  0.00  0.00    -0.004 C 
ATOM     16  C   UNL     1     116.343 117.861 157.760  0.00  0.00    +0.129 C 
ATOM     17  C   UNL     1     115.804 120.426 163.661  0.00  0.00    +0.039 C 
ATOM     18  C   UNL     1     115.736 116.600 161.295  0.00  0.00    +0.164 C 
ATOM     19  C   UNL     1     116.349 115.205 161.078  0.00  0.00    +0.086 C 
ATOM     20  C   UNL     1     115.263 117.535 156.661  0.00  0.00    +0.308 C 
ATOM     21  C   UNL     1     115.494 114.066 160.484  0.00  0.00    +0.132 C 
ATOM     22  C   UNL     1     117.835 115.197 160.742  0.00  0.00    +0.018 C 
ATOM     23  C   UNL     1     116.004 113.261 159.271  0.00  0.00    +0.032 C 
ATOM     24  C   UNL     1     114.602 115.258 156.586  0.00  0.00    +0.176 C 
ATOM     25  C   UNL     1     115.109 113.208 158.034  0.00  0.00    +0.006 C 
ATOM     26  C   UNL     1     115.614 114.180 156.979  0.00  0.00    +0.045 C 
ENDROOT
BRANCH  24  27
ATOM     27  C   UNL     1     113.630 114.728 155.504  0.00  0.00    +0.041 C 
ATOM     28  C   UNL     1     112.317 114.193 156.074  0.00  0.00    +0.007 C 
ENDBRANCH  24  27
BRANCH  10  29
ATOM     29  O   UNL     1     111.501 123.533 161.510  0.00  0.00    -0.345 OA
BRANCH  29  31
ATOM     30  O   UNL     1     112.745 125.328 160.441  0.00  0.00    -0.343 OA
ATOM     31  C   UNL     1     111.726 124.328 160.334  0.00  0.00    +0.282 C 
ATOM     32  C   UNL     1     110.448 124.849 159.638  0.00  0.00    +0.205 C 
ATOM     33  C   UNL     1     109.922 126.097 160.374  0.00  0.00    +0.183 C 
ATOM     34  C   UNL     1     112.395 126.589 161.012  0.00  0.00    +0.150 C 
ATOM     35  C   UNL     1     111.008 127.174 160.611  0.00  0.00    +0.178 C 
ATOM     36  C   UNL     1     113.513 127.568 160.661  0.00  0.00    +0.041 C 
BRANCH  32  37
ATOM     37  O   UNL     1     110.602 124.983 158.206  0.00  0.00    -0.372 OA
ATOM     38  C   UNL     1     111.230 123.949 157.468  0.00  0.00    +0.194 C 
ENDBRANCH  32  37
BRANCH  33  39
ATOM     39  O   UNL     1     108.653 126.592 159.908  0.00  0.00    -0.374 OA
ATOM     40  C   UNL     1     108.653 127.570 158.886  0.00  0.00    +0.194 C 
ENDBRANCH  33  39
BRANCH  35  41
ATOM     41  O   UNL     1     110.554 128.227 161.492  0.00  0.00    -0.375 OA
ATOM     42  C   UNL     1     110.371 127.910 162.865  0.00  0.00    +0.194 C 
ENDBRANCH  35  41
ENDBRANCH  29  31
ENDBRANCH  10  29
BRANCH  21  43
ATOM     43  O   UNL     1     114.139 114.464 160.382  0.00  0.00    -0.347 OA
BRANCH  43  45
ATOM     44  O   UNL     1     113.163 112.445 161.222  0.00  0.00    -0.347 OA
ATOM     45  C   UNL     1     113.272 113.856 161.359  0.00  0.00    +0.251 C 
ATOM     46  C   UNL     1     112.007 114.697 161.484  0.00  0.00    +0.063 C 
ATOM     47  C   UNL     1     110.797 114.073 160.832  0.00  0.00    +0.026 C 
ATOM     48  C   UNL     1     110.621 112.589 161.159  0.00  0.00    +0.085 C 
ATOM     49  C   UNL     1     111.927 111.791 160.926  0.00  0.00    +0.135 C 
ATOM     50  C   UNL     1     111.930 111.139 159.533  0.00  0.00    +0.039 C 
BRANCH  48  51
ATOM     51  N   UNL     1     109.967 112.361 162.476  0.00  0.00    -0.303 NA
ATOM     52  C   UNL     1     108.551 112.011 162.283  0.00  0.00    +0.105 C 
ATOM     53  C   UNL     1     110.590 111.345 163.327  0.00  0.00    +0.105 C 
ENDBRANCH  48  51
ENDBRANCH  43  45
ENDBRANCH  21  43
TORSDOF 9
ENDMDL
