MODEL 1
REMARK VINA RESULT:      -8.5      0.000      0.000
REMARK  Name = 
REMARK  18 active torsions:
REMARK  status: ('A' for Active; 'I' for Inactive)
REMARK    1  A    between atoms: O_1  and  C_18
REMARK    2  A    between atoms: O_1  and  C_26
REMARK    3  A    between atoms: O_5  and  C_29
REMARK    4  A    between atoms: O_5  and  C_43
REMARK    5  A    between atoms: O_6  and  C_30
REMARK    6  A    between atoms: O_6  and  C_40
REMARK    7  A    between atoms: O_8  and  C_31
REMARK    8  A    between atoms: O_8  and  C_47
REMARK    9  A    between atoms: O_9  and  C_32
REMARK   10  A    between atoms: O_9  and  C_49
REMARK   11  A    between atoms: N_11  and  C_45
REMARK   12  A    between atoms: N_11  and  C_51
REMARK   13  A    between atoms: N_11  and  C_52
REMARK   14  A    between atoms: C_27  and  C_34
REMARK   15  A    between atoms: C_33  and  C_39
REMARK   16  A    between atoms: C_36  and  C_41
REMARK   17  A    between atoms: C_41  and  C_48
REMARK   18  A    between atoms: C_46  and  C_50
REMARK                            x       y       z     vdW  Elec       q    Type
REMARK                         _______ _______ _______ _____ _____    ______ ____
ROOT
ATOM      1  O   UNL     1     123.137 105.719  61.489  0.00  0.00    -0.292 OA
ATOM      2  O   UNL     1     125.461 104.951  55.463  0.00  0.00    -0.461 OA
ATOM      3  O   UNL     1     126.984 103.837  56.717  0.00  0.00    -0.251 OA
ATOM      4  C   UNL     1     127.039 102.800  61.534  0.00  0.00    +0.006 C 
ATOM      5  C   UNL     1     126.497 103.699  60.438  0.00  0.00    +0.023 C 
ATOM      6  C   UNL     1     126.212 102.987  62.784  0.00  0.00    +0.018 C 
ATOM      7  C   UNL     1     125.289 102.906  59.855  0.00  0.00    +0.027 C 
ATOM      8  C   UNL     1     128.508 102.875  61.873  0.00  0.00    +0.036 C 
ATOM      9  C   UNL     1     127.128 102.369  63.840  0.00  0.00    +0.039 C 
ATOM     10  C   UNL     1     128.533 102.849  63.394  0.00  0.00    +0.122 C 
ATOM     11  C   UNL     1     124.831 104.023  58.865  0.00  0.00    +0.040 C 
ATOM     12  C   UNL     1     125.723 105.055  60.673  0.00  0.00    -0.015 C 
ATOM     13  C   UNL     1     124.821 102.487  62.390  0.00  0.00    -0.027 C 
ATOM     14  C   UNL     1     124.407 102.454  61.088  0.00  0.00    -0.026 C 
ATOM     15  C   UNL     1     124.660 105.168  59.814  0.00  0.00    -0.004 C 
ATOM     16  C   UNL     1     124.606 103.673  57.373  0.00  0.00    +0.129 C 
ATOM     17  C   UNL     1     123.419 105.852  60.286  0.00  0.00    +0.164 C 
ATOM     18  C   UNL     1     122.437 106.658  59.408  0.00  0.00    +0.086 C 
ATOM     19  C   UNL     1     125.812 104.146  56.498  0.00  0.00    +0.308 C 
ATOM     20  C   UNL     1     122.930 107.900  58.630  0.00  0.00    +0.132 C 
ATOM     21  C   UNL     1     121.305 105.851  58.787  0.00  0.00    +0.018 C 
ATOM     22  C   UNL     1     122.612 108.062  57.128  0.00  0.00    +0.032 C 
ATOM     23  C   UNL     1     125.541 106.373  55.747  0.00  0.00    +0.176 C 
ATOM     24  C   UNL     1     123.798 108.199  56.174  0.00  0.00    +0.006 C 
ATOM     25  C   UNL     1     124.108 106.862  55.524  0.00  0.00    +0.045 C 
ENDROOT
BRANCH  23  26
ATOM     26  C   UNL     1     126.527 107.062  54.777  0.00  0.00    +0.041 C 
ATOM     27  C   UNL     1     126.600 106.389  53.409  0.00  0.00    +0.007 C 
ENDBRANCH  23  26
BRANCH  10  28
ATOM     28  O   UNL     1     129.551 102.021  63.915  0.00  0.00    -0.345 OA
BRANCH  28  30
ATOM     29  O   UNL     1     130.234  99.759  64.469  0.00  0.00    -0.343 OA
ATOM     30  C   UNL     1     129.659 100.648  63.508  0.00  0.00    +0.282 C 
ATOM     31  C   UNL     1     130.189 100.399  62.075  0.00  0.00    +0.205 C 
ATOM     32  C   UNL     1     131.725 100.502  62.065  0.00  0.00    +0.183 C 
ATOM     33  C   UNL     1     132.405  99.648  63.159  0.00  0.00    +0.178 C 
ATOM     34  C   UNL     1     131.656  99.662  64.522  0.00  0.00    +0.150 C 
ATOM     35  C   UNL     1     131.988  98.412  65.332  0.00  0.00    +0.041 C 
BRANCH  31  36
ATOM     36  O   UNL     1     129.638  99.208  61.465  0.00  0.00    -0.372 OA
ATOM     37  C   UNL     1     128.966  99.298  60.220  0.00  0.00    +0.194 C 
ENDBRANCH  31  36
BRANCH  32  38
ATOM     38  O   UNL     1     132.330 100.435  60.761  0.00  0.00    -0.374 OA
ATOM     39  C   UNL     1     132.057 101.479  59.844  0.00  0.00    +0.194 C 
ENDBRANCH  32  38
BRANCH  33  40
ATOM     40  O   UNL     1     133.816  99.934  63.283  0.00  0.00    -0.375 OA
ATOM     41  C   UNL     1     134.730  98.926  62.877  0.00  0.00    +0.194 C 
ENDBRANCH  33  40
ENDBRANCH  28  30
ENDBRANCH  10  28
BRANCH  20  42
ATOM     42  O   UNL     1     124.278 108.188  58.957  0.00  0.00    -0.347 OA
BRANCH  42  44
ATOM     43  O   UNL     1     124.971 109.338  60.941  0.00  0.00    -0.347 OA
ATOM     44  C   UNL     1     124.470 109.457  59.616  0.00  0.00    +0.251 C 
ATOM     45  C   UNL     1     123.264 110.350  59.350  0.00  0.00    +0.063 C 
ATOM     46  C   UNL     1     122.353 110.512  60.542  0.00  0.00    +0.026 C 
ATOM     47  C   UNL     1     123.095 110.797  61.851  0.00  0.00    +0.085 C 
ATOM     48  C   UNL     1     124.248 109.792  62.085  0.00  0.00    +0.135 C 
ATOM     49  C   UNL     1     123.792 108.631  62.983  0.00  0.00    +0.039 C 
BRANCH  47  50
ATOM     50  N   UNL     1     123.462 112.230  62.013  0.00  0.00    -0.303 NA
ATOM     51  C   UNL     1     122.267 113.077  61.874  0.00  0.00    +0.105 C 
ATOM     52  C   UNL     1     124.141 112.571  63.265  0.00  0.00    +0.105 C 
ENDBRANCH  47  50
ENDBRANCH  42  44
ENDBRANCH  20  42
TORSDOF 9
ENDMDL
MODEL 2
REMARK VINA RESULT:      -8.3     24.647     29.899
REMARK  Name = 
REMARK  18 active torsions:
REMARK  status: ('A' for Active; 'I' for Inactive)
REMARK    1  A    between atoms: O_1  and  C_18
REMARK    2  A    between atoms: O_1  and  C_26
REMARK    3  A    between atoms: O_5  and  C_29
REMARK    4  A    between atoms: O_5  and  C_43
REMARK    5  A    between atoms: O_6  and  C_30
REMARK    6  A    between atoms: O_6  and  C_40
REMARK    7  A    between atoms: O_8  and  C_31
REMARK    8  A    between atoms: O_8  and  C_47
REMARK    9  A    between atoms: O_9  and  C_32
REMARK   10  A    between atoms: O_9  and  C_49
REMARK   11  A    between atoms: N_11  and  C_45
REMARK   12  A    between atoms: N_11  and  C_51
REMARK   13  A    between atoms: N_11  and  C_52
REMARK   14  A    between atoms: C_27  and  C_34
REMARK   15  A    between atoms: C_33  and  C_39
REMARK   16  A    between atoms: C_36  and  C_41
REMARK   17  A    between atoms: C_41  and  C_48
REMARK   18  A    between atoms: C_46  and  C_50
REMARK                            x       y       z     vdW  Elec       q    Type
REMARK                         _______ _______ _______ _____ _____    ______ ____
ROOT
ATOM      1  O   UNL     1     124.121 133.698  66.209  0.00  0.00    -0.292 OA
ATOM      2  O   UNL     1     130.299 131.810  66.958  0.00  0.00    -0.461 OA
ATOM      3  O   UNL     1     130.179 132.208  64.730  0.00  0.00    -0.251 OA
ATOM      4  C   UNL     1     126.536 134.083  61.993  0.00  0.00    +0.006 C 
ATOM      5  C   UNL     1     126.919 133.385  63.286  0.00  0.00    +0.023 C 
ATOM      6  C   UNL     1     125.135 134.632  62.122  0.00  0.00    +0.018 C 
ATOM      7  C   UNL     1     127.372 134.542  64.226  0.00  0.00    +0.027 C 
ATOM      8  C   UNL     1     126.676 133.329  60.693  0.00  0.00    +0.036 C 
ATOM      9  C   UNL     1     124.784 134.894  60.658  0.00  0.00    +0.039 C 
ATOM     10  C   UNL     1     125.401 133.668  59.936  0.00  0.00    +0.122 C 
ATOM     11  C   UNL     1     127.600 133.645  65.483  0.00  0.00    +0.040 C 
ATOM     12  C   UNL     1     125.905 132.721  64.296  0.00  0.00    -0.015 C 
ATOM     13  C   UNL     1     125.246 135.684  63.227  0.00  0.00    -0.027 C 
ATOM     14  C   UNL     1     126.238 135.644  64.166  0.00  0.00    -0.026 C 
ATOM     15  C   UNL     1     126.255 132.995  65.594  0.00  0.00    -0.004 C 
ATOM     16  C   UNL     1     128.946 133.726  66.243  0.00  0.00    +0.129 C 
ATOM     17  C   UNL     1     125.177 133.180  66.611  0.00  0.00    +0.164 C 
ATOM     18  C   UNL     1     125.276 132.836  68.113  0.00  0.00    +0.086 C 
ATOM     19  C   UNL     1     129.869 132.516  65.882  0.00  0.00    +0.308 C 
ATOM     20  C   UNL     1     125.569 131.385  68.559  0.00  0.00    +0.132 C 
ATOM     21  C   UNL     1     125.791 133.957  69.005  0.00  0.00    +0.018 C 
ATOM     22  C   UNL     1     126.679 131.090  69.591  0.00  0.00    +0.032 C 
ATOM     23  C   UNL     1     129.482 130.657  67.292  0.00  0.00    +0.176 C 
ATOM     24  C   UNL     1     127.804 130.151  69.157  0.00  0.00    +0.006 C 
ATOM     25  C   UNL     1     129.018 130.951  68.720  0.00  0.00    +0.045 C 
ENDROOT
BRANCH  23  26
ATOM     26  C   UNL     1     130.326 129.363  67.233  0.00  0.00    +0.041 C 
ATOM     27  C   UNL     1     130.924 129.093  65.855  0.00  0.00    +0.007 C 
ENDBRANCH  23  26
BRANCH  10  28
ATOM     28  O   UNL     1     125.626 133.934  58.568  0.00  0.00    -0.345 OA
BRANCH  28  30
ATOM     29  O   UNL     1     124.882 135.604  56.972  0.00  0.00    -0.343 OA
ATOM     30  C   UNL     1     125.715 135.285  58.088  0.00  0.00    +0.282 C 
ATOM     31  C   UNL     1     127.142 135.869  57.953  0.00  0.00    +0.205 C 
ATOM     32  C   UNL     1     127.779 135.381  56.638  0.00  0.00    +0.183 C 
ATOM     33  C   UNL     1     126.875 135.596  55.401  0.00  0.00    +0.178 C 
ATOM     34  C   UNL     1     125.371 135.305  55.666  0.00  0.00    +0.150 C 
ATOM     35  C   UNL     1     124.493 136.065  54.676  0.00  0.00    +0.041 C 
BRANCH  31  36
ATOM     36  O   UNL     1     127.196 137.297  58.181  0.00  0.00    -0.372 OA
ATOM     37  C   UNL     1     127.827 137.802  59.346  0.00  0.00    +0.194 C 
ENDBRANCH  31  36
BRANCH  32  38
ATOM     38  O   UNL     1     129.163 135.737  56.464  0.00  0.00    -0.374 OA
ATOM     39  C   UNL     1     130.062 135.456  57.521  0.00  0.00    +0.194 C 
ENDBRANCH  32  38
BRANCH  33  40
ATOM     40  O   UNL     1     127.385 134.929  54.225  0.00  0.00    -0.375 OA
ATOM     41  C   UNL     1     127.076 133.552  54.065  0.00  0.00    +0.194 C 
ENDBRANCH  33  40
ENDBRANCH  28  30
ENDBRANCH  10  28
BRANCH  20  42
ATOM     42  O   UNL     1     125.591 130.515  67.441  0.00  0.00    -0.347 OA
BRANCH  42  44
ATOM     43  O   UNL     1     124.346 128.947  66.126  0.00  0.00    -0.347 OA
ATOM     44  C   UNL     1     124.482 129.595  67.384  0.00  0.00    +0.251 C 
ATOM     45  C   UNL     1     123.260 130.237  68.030  0.00  0.00    +0.063 C 
ATOM     46  C   UNL     1     122.210 130.677  67.039  0.00  0.00    +0.026 C 
ATOM     47  C   UNL     1     121.900 129.633  65.964  0.00  0.00    +0.085 C 
ATOM     48  C   UNL     1     123.191 129.095  65.300  0.00  0.00    +0.135 C 
ATOM     49  C   UNL     1     123.499 129.856  64.001  0.00  0.00    +0.039 C 
BRANCH  47  50
ATOM     50  N   UNL     1     120.944 128.588  66.423  0.00  0.00    -0.303 NA
ATOM     51  C   UNL     1     119.587 128.902  65.948  0.00  0.00    +0.105 C 
ATOM     52  C   UNL     1     121.275 127.215  66.037  0.00  0.00    +0.105 C 
ENDBRANCH  47  50
ENDBRANCH  42  44
ENDBRANCH  20  42
TORSDOF 9
ENDMDL
MODEL 3
REMARK VINA RESULT:      -8.3     65.746     69.529
REMARK  Name = 
REMARK  18 active torsions:
REMARK  status: ('A' for Active; 'I' for Inactive)
REMARK    1  A    between atoms: O_1  and  C_18
REMARK    2  A    between atoms: O_1  and  C_26
REMARK    3  A    between atoms: O_5  and  C_29
REMARK    4  A    between atoms: O_5  and  C_43
REMARK    5  A    between atoms: O_6  and  C_30
REMARK    6  A    between atoms: O_6  and  C_40
REMARK    7  A    between atoms: O_8  and  C_31
REMARK    8  A    between atoms: O_8  and  C_47
REMARK    9  A    between atoms: O_9  and  C_32
REMARK   10  A    between atoms: O_9  and  C_49
REMARK   11  A    between atoms: N_11  and  C_45
REMARK   12  A    between atoms: N_11  and  C_51
REMARK   13  A    between atoms: N_11  and  C_52
REMARK   14  A    between atoms: C_27  and  C_34
REMARK   15  A    between atoms: C_33  and  C_39
REMARK   16  A    between atoms: C_36  and  C_41
REMARK   17  A    between atoms: C_41  and  C_48
REMARK   18  A    between atoms: C_46  and  C_50
REMARK                            x       y       z     vdW  Elec       q    Type
REMARK                         _______ _______ _______ _____ _____    ______ ____
ROOT
ATOM      1  O   UNL     1     132.786 118.294 128.364  0.00  0.00    -0.292 OA
ATOM      2  O   UNL     1     129.123 118.487 122.993  0.00  0.00    -0.461 OA
ATOM      3  O   UNL     1     127.645 117.797 124.565  0.00  0.00    -0.251 OA
ATOM      4  C   UNL     1     128.138 117.304 129.443  0.00  0.00    +0.006 C 
ATOM      5  C   UNL     1     128.841 117.378 128.100  0.00  0.00    +0.023 C 
ATOM      6  C   UNL     1     129.152 117.498 130.546  0.00  0.00    +0.018 C 
ATOM      7  C   UNL     1     128.972 118.905 127.821  0.00  0.00    +0.027 C 
ATOM      8  C   UNL     1     127.275 116.103 129.744  0.00  0.00    +0.036 C 
ATOM      9  C   UNL     1     128.376 116.979 131.756  0.00  0.00    +0.039 C 
ATOM     10  C   UNL     1     127.631 115.748 131.180  0.00  0.00    +0.122 C 
ATOM     11  C   UNL     1     129.794 118.754 126.502  0.00  0.00    +0.040 C 
ATOM     12  C   UNL     1     130.356 117.019 127.846  0.00  0.00    -0.015 C 
ATOM     13  C   UNL     1     129.657 118.927 130.341  0.00  0.00    -0.027 C 
ATOM     14  C   UNL     1     129.582 119.554 129.128  0.00  0.00    -0.026 C 
ATOM     15  C   UNL     1     130.939 117.924 126.994  0.00  0.00    -0.004 C 
ATOM     16  C   UNL     1     129.323 119.489 125.223  0.00  0.00    +0.129 C 
ATOM     17  C   UNL     1     132.375 118.283 127.191  0.00  0.00    +0.164 C 
ATOM     18  C   UNL     1     133.370 118.688 126.082  0.00  0.00    +0.086 C 
ATOM     19  C   UNL     1     128.599 118.507 124.245  0.00  0.00    +0.308 C 
ATOM     20  C   UNL     1     133.683 117.711 124.925  0.00  0.00    +0.132 C 
ATOM     21  C   UNL     1     133.430 120.177 125.773  0.00  0.00    +0.018 C 
ATOM     22  C   UNL     1     133.624 118.188 123.458  0.00  0.00    +0.032 C 
ATOM     23  C   UNL     1     130.115 117.451 122.767  0.00  0.00    +0.176 C 
ATOM     24  C   UNL     1     132.663 117.455 122.523  0.00  0.00    +0.006 C 
ATOM     25  C   UNL     1     131.369 118.236 122.379  0.00  0.00    +0.045 C 
ENDROOT
BRANCH  23  26
ATOM     26  C   UNL     1     129.664 116.513 121.624  0.00  0.00    +0.041 C 
ATOM     27  C   UNL     1     128.646 117.152 120.683  0.00  0.00    +0.007 C 
ENDBRANCH  23  26
BRANCH  10  28
ATOM     28  O   UNL     1     126.504 115.414 131.962  0.00  0.00    -0.345 OA
BRANCH  28  30
ATOM     29  O   UNL     1     125.884 113.120 132.456  0.00  0.00    -0.343 OA
ATOM     30  C   UNL     1     126.550 114.311 132.881  0.00  0.00    +0.282 C 
ATOM     31  C   UNL     1     126.276 114.648 134.367  0.00  0.00    +0.205 C 
ATOM     32  C   UNL     1     124.758 114.756 134.603  0.00  0.00    +0.183 C 
ATOM     33  C   UNL     1     123.965 113.544 134.061  0.00  0.00    +0.178 C 
ATOM     34  C   UNL     1     124.481 113.018 132.692  0.00  0.00    +0.150 C 
ATOM     35  C   UNL     1     124.102 111.552 132.500  0.00  0.00    +0.041 C 
BRANCH  31  36
ATOM     36  O   UNL     1     126.992 113.788 135.285  0.00  0.00    -0.372 OA
ATOM     37  C   UNL     1     127.842 114.357 136.268  0.00  0.00    +0.194 C 
ENDBRANCH  31  36
BRANCH  32  38
ATOM     38  O   UNL     1     124.378 115.209 135.915  0.00  0.00    -0.374 OA
ATOM     39  C   UNL     1     124.595 116.570 136.239  0.00  0.00    +0.194 C 
ENDBRANCH  32  38
BRANCH  33  40
ATOM     40  O   UNL     1     122.538 113.767 134.083  0.00  0.00    -0.375 OA
ATOM     41  C   UNL     1     121.767 113.009 135.005  0.00  0.00    +0.194 C 
ENDBRANCH  33  40
ENDBRANCH  28  30
ENDBRANCH  10  28
BRANCH  20  42
ATOM     42  O   UNL     1     133.045 116.464 125.140  0.00  0.00    -0.347 OA
BRANCH  42  44
ATOM     43  O   UNL     1     133.987 114.295 124.759  0.00  0.00    -0.347 OA
ATOM     44  C   UNL     1     133.922 115.425 125.620  0.00  0.00    +0.251 C 
ATOM     45  C   UNL     1     133.686 115.216 127.111  0.00  0.00    +0.063 C 
ATOM     46  C   UNL     1     132.936 113.947 127.436  0.00  0.00    +0.026 C 
ATOM     47  C   UNL     1     133.448 112.717 126.682  0.00  0.00    +0.085 C 
ATOM     48  C   UNL     1     133.576 112.989 125.164  0.00  0.00    +0.135 C 
ATOM     49  C   UNL     1     132.322 112.516 124.414  0.00  0.00    +0.039 C 
BRANCH  47  50
ATOM     50  N   UNL     1     134.645 112.101 127.317  0.00  0.00    -0.303 NA
ATOM     51  C   UNL     1     134.707 112.467 128.741  0.00  0.00    +0.105 C 
ATOM     52  C   UNL     1     134.744 110.644 127.199  0.00  0.00    +0.105 C 
ENDBRANCH  47  50
ENDBRANCH  42  44
ENDBRANCH  20  42
TORSDOF 9
ENDMDL
MODEL 4
REMARK VINA RESULT:      -8.2     13.918     19.160
REMARK  Name = 
REMARK  18 active torsions:
REMARK  status: ('A' for Active; 'I' for Inactive)
REMARK    1  A    between atoms: O_1  and  C_18
REMARK    2  A    between atoms: O_1  and  C_26
REMARK    3  A    between atoms: O_5  and  C_29
REMARK    4  A    between atoms: O_5  and  C_43
REMARK    5  A    between atoms: O_6  and  C_30
REMARK    6  A    between atoms: O_6  and  C_40
REMARK    7  A    between atoms: O_8  and  C_31
REMARK    8  A    between atoms: O_8  and  C_47
REMARK    9  A    between atoms: O_9  and  C_32
REMARK   10  A    between atoms: O_9  and  C_49
REMARK   11  A    between atoms: N_11  and  C_45
REMARK   12  A    between atoms: N_11  and  C_51
REMARK   13  A    between atoms: N_11  and  C_52
REMARK   14  A    between atoms: C_27  and  C_34
REMARK   15  A    between atoms: C_33  and  C_39
REMARK   16  A    between atoms: C_36  and  C_41
REMARK   17  A    between atoms: C_41  and  C_48
REMARK   18  A    between atoms: C_46  and  C_50
REMARK                            x       y       z     vdW  Elec       q    Type
REMARK                         _______ _______ _______ _____ _____    ______ ____
ROOT
ATOM      1  O   UNL     1     134.425 122.165  66.759  0.00  0.00    -0.292 OA
ATOM      2  O   UNL     1     133.655 115.713  67.042  0.00  0.00    -0.461 OA
ATOM      3  O   UNL     1     133.965 116.069  64.826  0.00  0.00    -0.251 OA
ATOM      4  C   UNL     1     135.107 120.180  62.361  0.00  0.00    +0.006 C 
ATOM      5  C   UNL     1     134.522 119.585  63.628  0.00  0.00    +0.023 C 
ATOM      6  C   UNL     1     135.409 121.642  62.593  0.00  0.00    +0.018 C 
ATOM      7  C   UNL     1     135.765 119.271  64.514  0.00  0.00    +0.027 C 
ATOM      8  C   UNL     1     134.353 120.010  61.065  0.00  0.00    +0.036 C 
ATOM      9  C   UNL     1     135.566 122.143  61.158  0.00  0.00    +0.039 C 
ATOM     10  C   UNL     1     134.446 121.378  60.406  0.00  0.00    +0.122 C 
ATOM     11  C   UNL     1     134.954 118.796  65.761  0.00  0.00    +0.040 C 
ATOM     12  C   UNL     1     133.720 120.387  64.725  0.00  0.00    -0.015 C 
ATOM     13  C   UNL     1     136.493 121.633  63.671  0.00  0.00    -0.027 C 
ATOM     14  C   UNL     1     136.651 120.581  64.529  0.00  0.00    -0.026 C 
ATOM     15  C   UNL     1     134.085 119.994  65.987  0.00  0.00    -0.004 C 
ATOM     16  C   UNL     1     135.288 117.430  66.411  0.00  0.00    +0.129 C 
ATOM     17  C   UNL     1     134.109 121.008  67.084  0.00  0.00    +0.164 C 
ATOM     18  C   UNL     1     133.828 120.736  68.578  0.00  0.00    +0.086 C 
ATOM     19  C   UNL     1     134.247 116.341  65.994  0.00  0.00    +0.308 C 
ATOM     20  C   UNL     1     132.462 120.162  69.019  0.00  0.00    +0.132 C 
ATOM     21  C   UNL     1     135.045 120.359  69.411  0.00  0.00    +0.018 C 
ATOM     22  C   UNL     1     132.392 118.943  69.964  0.00  0.00    +0.032 C 
ATOM     23  C   UNL     1     132.387 116.289  67.456  0.00  0.00    +0.176 C 
ATOM     24  C   UNL     1     131.650 117.708  69.455  0.00  0.00    +0.006 C 
ATOM     25  C   UNL     1     132.636 116.688  68.912  0.00  0.00    +0.045 C 
ENDROOT
BRANCH  23  26
ATOM     26  C   UNL     1     131.258 115.239  67.347  0.00  0.00    +0.041 C 
ATOM     27  C   UNL     1     131.387 114.335  66.125  0.00  0.00    +0.007 C 
ENDBRANCH  23  26
BRANCH  10  28
ATOM     28  O   UNL     1     134.710 121.307  59.021  0.00  0.00    -0.345 OA
BRANCH  28  30
ATOM     29  O   UNL     1     136.224 122.214  57.356  0.00  0.00    -0.343 OA
ATOM     30  C   UNL     1     136.054 121.409  58.524  0.00  0.00    +0.282 C 
ATOM     31  C   UNL     1     136.860 120.090  58.461  0.00  0.00    +0.205 C 
ATOM     32  C   UNL     1     136.473 119.305  57.194  0.00  0.00    +0.183 C 
ATOM     33  C   UNL     1     136.528 120.155  55.904  0.00  0.00    +0.178 C 
ATOM     34  C   UNL     1     135.998 121.606  56.086  0.00  0.00    +0.150 C 
ATOM     35  C   UNL     1     136.598 122.533  55.033  0.00  0.00    +0.041 C 
BRANCH  31  36
ATOM     36  O   UNL     1     138.280 120.282  58.667  0.00  0.00    -0.372 OA
ATOM     37  C   UNL     1     138.796 120.371  59.985  0.00  0.00    +0.194 C 
ENDBRANCH  31  36
BRANCH  32  38
ATOM     38  O   UNL     1     137.047 117.989  57.095  0.00  0.00    -0.374 OA
ATOM     39  C   UNL     1     136.860 117.095  58.177  0.00  0.00    +0.194 C 
ENDBRANCH  32  38
BRANCH  33  40
ATOM     40  O   UNL     1     135.943 119.473  54.772  0.00  0.00    -0.375 OA
ATOM     41  C   UNL     1     134.526 119.445  54.681  0.00  0.00    +0.194 C 
ENDBRANCH  33  40
ENDBRANCH  28  30
ENDBRANCH  10  28
BRANCH  20  42
ATOM     42  O   UNL     1     131.579 120.073  67.915  0.00  0.00    -0.347 OA
BRANCH  42  44
ATOM     43  O   UNL     1     130.594 121.959  69.015  0.00  0.00    -0.347 OA
ATOM     44  C   UNL     1     130.539 121.072  67.906  0.00  0.00    +0.251 C 
ATOM     45  C   UNL     1     129.213 120.416  67.538  0.00  0.00    +0.063 C 
ATOM     46  C   UNL     1     128.268 120.260  68.704  0.00  0.00    +0.026 C 
ATOM     47  C   UNL     1     128.151 121.513  69.575  0.00  0.00    +0.085 C 
ATOM     48  C   UNL     1     129.541 122.064  69.974  0.00  0.00    +0.135 C 
ATOM     49  C   UNL     1     129.961 121.546  71.358  0.00  0.00    +0.039 C 
BRANCH  47  50
ATOM     50  N   UNL     1     127.206 122.521  69.022  0.00  0.00    -0.303 NA
ATOM     51  C   UNL     1     126.159 122.828  70.010  0.00  0.00    +0.105 C 
ATOM     52  C   UNL     1     127.813 123.776  68.571  0.00  0.00    +0.105 C 
ENDBRANCH  47  50
ENDBRANCH  42  44
ENDBRANCH  20  42
TORSDOF 9
ENDMDL
MODEL 5
REMARK VINA RESULT:      -8.2     42.562     46.140
REMARK  Name = 
REMARK  18 active torsions:
REMARK  status: ('A' for Active; 'I' for Inactive)
REMARK    1  A    between atoms: O_1  and  C_18
REMARK    2  A    between atoms: O_1  and  C_26
REMARK    3  A    between atoms: O_5  and  C_29
REMARK    4  A    between atoms: O_5  and  C_43
REMARK    5  A    between atoms: O_6  and  C_30
REMARK    6  A    between atoms: O_6  and  C_40
REMARK    7  A    between atoms: O_8  and  C_31
REMARK    8  A    between atoms: O_8  and  C_47
REMARK    9  A    between atoms: O_9  and  C_32
REMARK   10  A    between atoms: O_9  and  C_49
REMARK   11  A    between atoms: N_11  and  C_45
REMARK   12  A    between atoms: N_11  and  C_51
REMARK   13  A    between atoms: N_11  and  C_52
REMARK   14  A    between atoms: C_27  and  C_34
REMARK   15  A    between atoms: C_33  and  C_39
REMARK   16  A    between atoms: C_36  and  C_41
REMARK   17  A    between atoms: C_41  and  C_48
REMARK   18  A    between atoms: C_46  and  C_50
REMARK                            x       y       z     vdW  Elec       q    Type
REMARK                         _______ _______ _______ _____ _____    ______ ____
ROOT
ATOM      1  O   UNL     1     110.450 131.091  30.708  0.00  0.00    -0.292 OA
ATOM      2  O   UNL     1     106.974 136.580  30.994  0.00  0.00    -0.461 OA
ATOM      3  O   UNL     1     105.363 134.987  30.948  0.00  0.00    -0.251 OA
ATOM      4  C   UNL     1     105.700 130.073  31.099  0.00  0.00    +0.006 C 
ATOM      5  C   UNL     1     106.403 131.382  30.787  0.00  0.00    +0.023 C 
ATOM      6  C   UNL     1     106.727 128.970  31.197  0.00  0.00    +0.018 C 
ATOM      7  C   UNL     1     106.921 131.877  32.170  0.00  0.00    +0.027 C 
ATOM      8  C   UNL     1     104.558 129.635  30.214  0.00  0.00    +0.036 C 
ATOM      9  C   UNL     1     105.841 127.730  31.082  0.00  0.00    +0.039 C 
ATOM     10  C   UNL     1     104.807 128.149  30.005  0.00  0.00    +0.122 C 
ATOM     11  C   UNL     1     107.680 133.124  31.617  0.00  0.00    +0.040 C 
ATOM     12  C   UNL     1     107.777 131.517  30.023  0.00  0.00    -0.015 C 
ATOM     13  C   UNL     1     107.581 129.361  32.404  0.00  0.00    -0.027 C 
ATOM     14  C   UNL     1     107.672 130.655  32.836  0.00  0.00    -0.026 C 
ATOM     15  C   UNL     1     108.574 132.467  30.610  0.00  0.00    -0.004 C 
ATOM     16  C   UNL     1     107.417 134.516  32.242  0.00  0.00    +0.129 C 
ATOM     17  C   UNL     1     110.053 132.265  30.621  0.00  0.00    +0.164 C 
ATOM     18  C   UNL     1     111.122 133.379  30.587  0.00  0.00    +0.086 C 
ATOM     19  C   UNL     1     106.469 135.368  31.337  0.00  0.00    +0.308 C 
ATOM     20  C   UNL     1     111.178 134.366  29.398  0.00  0.00    +0.132 C 
ATOM     21  C   UNL     1     111.562 133.902  31.948  0.00  0.00    +0.018 C 
ATOM     22  C   UNL     1     111.247 135.888  29.645  0.00  0.00    +0.032 C 
ATOM     23  C   UNL     1     107.669 136.609  29.720  0.00  0.00    +0.176 C 
ATOM     24  C   UNL     1     110.134 136.745  29.043  0.00  0.00    +0.006 C 
ATOM     25  C   UNL     1     109.083 137.056  30.094  0.00  0.00    +0.045 C 
ENDROOT
BRANCH  23  26
ATOM     26  C   UNL     1     106.996 137.620  28.763  0.00  0.00    +0.041 C 
ATOM     27  C   UNL     1     106.186 136.957  27.653  0.00  0.00    +0.007 C 
ENDBRANCH  23  26
BRANCH  10  28
ATOM     28  O   UNL     1     103.631 127.374  30.090  0.00  0.00    -0.345 OA
BRANCH  28  30
ATOM     29  O   UNL     1     101.274 127.947  30.184  0.00  0.00    -0.343 OA
ATOM     30  C   UNL     1     102.443 127.764  29.382  0.00  0.00    +0.282 C 
ATOM     31  C   UNL     1     102.150 127.003  28.067  0.00  0.00    +0.205 C 
ATOM     32  C   UNL     1     101.489 125.649  28.388  0.00  0.00    +0.183 C 
ATOM     33  C   UNL     1     100.281 125.767  29.347  0.00  0.00    +0.178 C 
ATOM     34  C   UNL     1     100.489 126.798  30.493  0.00  0.00    +0.150 C 
ATOM     35  C   UNL     1      99.145 127.301  31.014  0.00  0.00    +0.041 C 
BRANCH  31  36
ATOM     36  O   UNL     1     101.467 127.813  27.082  0.00  0.00    -0.372 OA
ATOM     37  C   UNL     1     102.125 128.161  25.875  0.00  0.00    +0.194 C 
ENDBRANCH  31  36
BRANCH  32  38
ATOM     38  O   UNL     1     101.299 124.781  27.256  0.00  0.00    -0.374 OA
ATOM     39  C   UNL     1     102.439 124.405  26.505  0.00  0.00    +0.194 C 
ENDBRANCH  32  38
BRANCH  33  40
ATOM     40  O   UNL     1      99.824 124.479  29.816  0.00  0.00    -0.375 OA
ATOM     41  C   UNL     1      98.556 124.026  29.363  0.00  0.00    +0.194 C 
ENDBRANCH  33  40
ENDBRANCH  28  30
ENDBRANCH  10  28
BRANCH  20  42
ATOM     42  O   UNL     1     110.242 133.997  28.401  0.00  0.00    -0.347 OA
BRANCH  42  44
ATOM     43  O   UNL     1     111.238 132.067  27.390  0.00  0.00    -0.347 OA
ATOM     44  C   UNL     1     110.832 133.418  27.219  0.00  0.00    +0.251 C 
ATOM     45  C   UNL     1     111.803 134.417  26.600  0.00  0.00    +0.063 C 
ATOM     46  C   UNL     1     113.255 134.062  26.808  0.00  0.00    +0.026 C 
ATOM     47  C   UNL     1     113.576 132.592  26.533  0.00  0.00    +0.085 C 
ATOM     48  C   UNL     1     112.596 131.645  27.267  0.00  0.00    +0.135 C 
ATOM     49  C   UNL     1     113.184 131.178  28.607  0.00  0.00    +0.039 C 
BRANCH  47  50
ATOM     50  N   UNL     1     113.773 132.298  25.087  0.00  0.00    -0.303 NA
ATOM     51  C   UNL     1     114.896 133.091  24.559  0.00  0.00    +0.105 C 
ATOM     52  C   UNL     1     113.990 130.889  24.751  0.00  0.00    +0.105 C 
ENDBRANCH  47  50
ENDBRANCH  42  44
ENDBRANCH  20  42
TORSDOF 9
ENDMDL
MODEL 6
REMARK VINA RESULT:      -8.0     34.559     40.832
REMARK  Name = 
REMARK  18 active torsions:
REMARK  status: ('A' for Active; 'I' for Inactive)
REMARK    1  A    between atoms: O_1  and  C_18
REMARK    2  A    between atoms: O_1  and  C_26
REMARK    3  A    between atoms: O_5  and  C_29
REMARK    4  A    between atoms: O_5  and  C_43
REMARK    5  A    between atoms: O_6  and  C_30
REMARK    6  A    between atoms: O_6  and  C_40
REMARK    7  A    between atoms: O_8  and  C_31
REMARK    8  A    between atoms: O_8  and  C_47
REMARK    9  A    between atoms: O_9  and  C_32
REMARK   10  A    between atoms: O_9  and  C_49
REMARK   11  A    between atoms: N_11  and  C_45
REMARK   12  A    between atoms: N_11  and  C_51
REMARK   13  A    between atoms: N_11  and  C_52
REMARK   14  A    between atoms: C_27  and  C_34
REMARK   15  A    between atoms: C_33  and  C_39
REMARK   16  A    between atoms: C_36  and  C_41
REMARK   17  A    between atoms: C_41  and  C_48
REMARK   18  A    between atoms: C_46  and  C_50
REMARK                            x       y       z     vdW  Elec       q    Type
REMARK                         _______ _______ _______ _____ _____    ______ ____
ROOT
ATOM      1  O   UNL     1     112.602 137.245  42.269  0.00  0.00    -0.292 OA
ATOM      2  O   UNL     1     110.164 136.037  48.176  0.00  0.00    -0.461 OA
ATOM      3  O   UNL     1     110.605 138.257  48.277  0.00  0.00    -0.251 OA
ATOM      4  C   UNL     1     112.160 141.385  44.801  0.00  0.00    +0.006 C 
ATOM      5  C   UNL     1     112.071 139.940  45.257  0.00  0.00    +0.023 C 
ATOM      6  C   UNL     1     112.533 141.422  43.338  0.00  0.00    +0.018 C 
ATOM      7  C   UNL     1     110.653 139.482  44.801  0.00  0.00    +0.027 C 
ATOM      8  C   UNL     1     113.036 142.337  45.579  0.00  0.00    +0.036 C 
ATOM      9  C   UNL     1     112.983 142.874  43.184  0.00  0.00    +0.039 C 
ATOM     10  C   UNL     1     113.758 143.132  44.502  0.00  0.00    +0.122 C 
ATOM     11  C   UNL     1     110.816 137.995  45.248  0.00  0.00    +0.040 C 
ATOM     12  C   UNL     1     112.862 138.733  44.617  0.00  0.00    -0.015 C 
ATOM     13  C   UNL     1     111.346 140.764  42.633  0.00  0.00    -0.027 C 
ATOM     14  C   UNL     1     110.510 139.897  43.281  0.00  0.00    -0.026 C 
ATOM     15  C   UNL     1     112.061 137.626  44.502  0.00  0.00    -0.004 C 
ATOM     16  C   UNL     1     109.735 137.348  46.149  0.00  0.00    +0.129 C 
ATOM     17  C   UNL     1     112.250 136.713  43.336  0.00  0.00    +0.164 C 
ATOM     18  C   UNL     1     111.998 135.189  43.325  0.00  0.00    +0.086 C 
ATOM     19  C   UNL     1     110.210 137.282  47.637  0.00  0.00    +0.308 C 
ATOM     20  C   UNL     1     112.782 134.266  44.286  0.00  0.00    +0.132 C 
ATOM     21  C   UNL     1     110.586 134.765  42.948  0.00  0.00    +0.018 C 
ATOM     22  C   UNL     1     112.041 133.226  45.153  0.00  0.00    +0.032 C 
ATOM     23  C   UNL     1     111.410 135.295  48.095  0.00  0.00    +0.176 C 
ATOM     24  C   UNL     1     112.216 133.329  46.668  0.00  0.00    +0.006 C 
ATOM     25  C   UNL     1     111.033 134.052  47.286  0.00  0.00    +0.045 C 
ENDROOT
BRANCH  23  26
ATOM     26  C   UNL     1     111.904 134.915  49.510  0.00  0.00    +0.041 C 
ATOM     27  C   UNL     1     111.081 133.808  50.162  0.00  0.00    +0.007 C 
ENDBRANCH  23  26
BRANCH  10  28
ATOM     28  O   UNL     1     113.837 144.511  44.793  0.00  0.00    -0.345 OA
BRANCH  28  30
ATOM     29  O   UNL     1     115.367 146.246  44.059  0.00  0.00    -0.343 OA
ATOM     30  C   UNL     1     115.111 145.156  44.948  0.00  0.00    +0.282 C 
ATOM     31  C   UNL     1     116.334 144.223  45.113  0.00  0.00    +0.205 C 
ATOM     32  C   UNL     1     116.785 143.709  43.733  0.00  0.00    +0.183 C 
ATOM     33  C   UNL     1     116.971 144.834  42.690  0.00  0.00    +0.178 C 
ATOM     34  C   UNL     1     115.885 145.945  42.765  0.00  0.00    +0.150 C 
ATOM     35  C   UNL     1     116.411 147.253  42.180  0.00  0.00    +0.041 C 
BRANCH  31  36
ATOM     36  O   UNL     1     117.377 144.794  45.939  0.00  0.00    -0.372 OA
ATOM     37  C   UNL     1     117.467 144.439  47.309  0.00  0.00    +0.194 C 
ENDBRANCH  31  36
BRANCH  32  38
ATOM     38  O   UNL     1     117.825 142.714  43.765  0.00  0.00    -0.374 OA
ATOM     39  C   UNL     1     117.618 141.557  44.554  0.00  0.00    +0.194 C 
ENDBRANCH  32  38
BRANCH  33  40
ATOM     40  O   UNL     1     117.165 144.319  41.354  0.00  0.00    -0.375 OA
ATOM     41  C   UNL     1     118.473 144.391  40.805  0.00  0.00    +0.194 C 
ENDBRANCH  33  40
ENDBRANCH  28  30
ENDBRANCH  10  28
BRANCH  20  42
ATOM     42  O   UNL     1     113.759 135.005  44.999  0.00  0.00    -0.347 OA
BRANCH  42  44
ATOM     43  O   UNL     1     115.959 134.069  45.156  0.00  0.00    -0.347 OA
ATOM     44  C   UNL     1     115.085 134.931  44.438  0.00  0.00    +0.251 C 
ATOM     45  C   UNL     1     115.555 136.333  44.068  0.00  0.00    +0.063 C 
ATOM     46  C   UNL     1     116.599 136.890  45.005  0.00  0.00    +0.026 C 
ATOM     47  C   UNL     1     117.716 135.901  45.343  0.00  0.00    +0.085 C 
ATOM     48  C   UNL     1     117.151 134.531  45.791  0.00  0.00    +0.135 C 
ATOM     49  C   UNL     1     117.066 134.446  47.322  0.00  0.00    +0.039 C 
BRANCH  47  50
ATOM     50  N   UNL     1     118.774 135.837  44.299  0.00  0.00    -0.303 NA
ATOM     51  C   UNL     1     118.985 137.169  43.711  0.00  0.00    +0.105 C 
ATOM     52  C   UNL     1     120.066 135.304  44.738  0.00  0.00    +0.105 C 
ENDBRANCH  47  50
ENDBRANCH  42  44
ENDBRANCH  20  42
TORSDOF 9
ENDMDL
MODEL 7
REMARK VINA RESULT:      -8.0     67.706     71.785
REMARK  Name = 
REMARK  18 active torsions:
REMARK  status: ('A' for Active; 'I' for Inactive)
REMARK    1  A    between atoms: O_1  and  C_18
REMARK    2  A    between atoms: O_1  and  C_26
REMARK    3  A    between atoms: O_5  and  C_29
REMARK    4  A    between atoms: O_5  and  C_43
REMARK    5  A    between atoms: O_6  and  C_30
REMARK    6  A    between atoms: O_6  and  C_40
REMARK    7  A    between atoms: O_8  and  C_31
REMARK    8  A    between atoms: O_8  and  C_47
REMARK    9  A    between atoms: O_9  and  C_32
REMARK   10  A    between atoms: O_9  and  C_49
REMARK   11  A    between atoms: N_11  and  C_45
REMARK   12  A    between atoms: N_11  and  C_51
REMARK   13  A    between atoms: N_11  and  C_52
REMARK   14  A    between atoms: C_27  and  C_34
REMARK   15  A    between atoms: C_33  and  C_39
REMARK   16  A    between atoms: C_36  and  C_41
REMARK   17  A    between atoms: C_41  and  C_48
REMARK   18  A    between atoms: C_46  and  C_50
REMARK                            x       y       z     vdW  Elec       q    Type
REMARK                         _______ _______ _______ _____ _____    ______ ____
ROOT
ATOM      1  O   UNL     1     110.419 116.833 128.348  0.00  0.00    -0.292 OA
ATOM      2  O   UNL     1     113.347 119.024 122.970  0.00  0.00    -0.461 OA
ATOM      3  O   UNL     1     114.124 120.442 124.558  0.00  0.00    -0.251 OA
ATOM      4  C   UNL     1     113.514 120.433 129.448  0.00  0.00    +0.006 C 
ATOM      5  C   UNL     1     112.980 119.972 128.104  0.00  0.00    +0.023 C 
ATOM      6  C   UNL     1     112.848 119.637 130.546  0.00  0.00    +0.018 C 
ATOM      7  C   UNL     1     113.803 118.688 127.785  0.00  0.00    +0.027 C 
ATOM      8  C   UNL     1     113.470 121.904 129.780  0.00  0.00    +0.036 C 
ATOM      9  C   UNL     1     113.166 120.497 131.769  0.00  0.00    +0.039 C 
ATOM     10  C   UNL     1     112.995 121.939 131.225  0.00  0.00    +0.122 C 
ATOM     11  C   UNL     1     113.038 118.333 126.471  0.00  0.00    +0.040 C 
ATOM     12  C   UNL     1     111.556 119.336 127.861  0.00  0.00    -0.015 C 
ATOM     13  C   UNL     1     113.316 118.202 130.304  0.00  0.00    -0.027 C 
ATOM     14  C   UNL     1     113.738 117.776 129.075  0.00  0.00    -0.026 C 
ATOM     15  C   UNL     1     111.632 118.281 126.986  0.00  0.00    -0.004 C 
ATOM     16  C   UNL     1     113.837 118.064 125.173  0.00  0.00    +0.129 C 
ATOM     17  C   UNL     1     110.718 117.117 127.175  0.00  0.00    +0.164 C 
ATOM     18  C   UNL     1     110.157 116.211 126.057  0.00  0.00    +0.086 C 
ATOM     19  C   UNL     1     113.795 119.304 124.221  0.00  0.00    +0.308 C 
ATOM     20  C   UNL     1     109.294 116.817 124.926  0.00  0.00    +0.132 C 
ATOM     21  C   UNL     1     111.014 115.001 125.708  0.00  0.00    +0.018 C 
ATOM     22  C   UNL     1     109.608 116.505 123.447  0.00  0.00    +0.032 C 
ATOM     23  C   UNL     1     111.925 119.244 122.772  0.00  0.00    +0.176 C 
ATOM     24  C   UNL     1     109.905 117.691 122.531  0.00  0.00    +0.006 C 
ATOM     25  C   UNL     1     111.405 117.864 122.365  0.00  0.00    +0.045 C 
ENDROOT
BRANCH  23  26
ATOM     26  C   UNL     1     111.691 120.285 121.654  0.00  0.00    +0.041 C 
ATOM     27  C   UNL     1     112.910 121.160 121.376  0.00  0.00    +0.007 C 
ENDBRANCH  23  26
BRANCH  10  28
ATOM     28  O   UNL     1     113.697 122.875 132.014  0.00  0.00    -0.345 OA
BRANCH  28  30
ATOM     29  O   UNL     1     112.716 125.017 132.594  0.00  0.00    -0.343 OA
ATOM     30  C   UNL     1     113.009 123.676 132.988  0.00  0.00    +0.282 C 
ATOM     31  C   UNL     1     113.533 123.583 134.442  0.00  0.00    +0.205 C 
ATOM     32  C   UNL     1     114.771 124.485 134.605  0.00  0.00    +0.183 C 
ATOM     33  C   UNL     1     114.553 125.927 134.090  0.00  0.00    +0.178 C 
ATOM     34  C   UNL     1     113.730 126.004 132.772  0.00  0.00    +0.150 C 
ATOM     35  C   UNL     1     113.056 127.367 132.638  0.00  0.00    +0.041 C 
BRANCH  31  36
ATOM     36  O   UNL     1     112.494 123.763 135.433  0.00  0.00    -0.372 OA
ATOM     37  C   UNL     1     111.360 122.911 135.430  0.00  0.00    +0.194 C 
ENDBRANCH  31  36
BRANCH  32  38
ATOM     38  O   UNL     1     115.441 124.375 135.874  0.00  0.00    -0.374 OA
ATOM     39  C   UNL     1     116.695 123.720 135.912  0.00  0.00    +0.194 C 
ENDBRANCH  32  38
BRANCH  33  40
ATOM     40  O   UNL     1     115.783 126.683 134.037  0.00  0.00    -0.375 OA
ATOM     41  C   UNL     1     115.943 127.744 134.969  0.00  0.00    +0.194 C 
ENDBRANCH  33  40
ENDBRANCH  28  30
ENDBRANCH  10  28
BRANCH  20  42
ATOM     42  O   UNL     1     109.043 118.189 125.173  0.00  0.00    -0.347 OA
BRANCH  42  44
ATOM     43  O   UNL     1     106.910 119.226 124.837  0.00  0.00    -0.347 OA
ATOM     44  C   UNL     1     107.733 118.464 125.710  0.00  0.00    +0.251 C 
ATOM     45  C   UNL     1     107.864 118.884 127.170  0.00  0.00    +0.063 C 
ATOM     46  C   UNL     1     107.645 120.359 127.400  0.00  0.00    +0.026 C 
ATOM     47  C   UNL     1     106.422 120.922 126.671  0.00  0.00    +0.085 C 
ATOM     48  C   UNL     1     106.411 120.521 125.177  0.00  0.00    +0.135 C 
ATOM     49  C   UNL     1     107.026 121.627 124.306  0.00  0.00    +0.039 C 
BRANCH  47  50
ATOM     50  N   UNL     1     105.147 120.680 127.400  0.00  0.00    -0.303 NA
ATOM     51  C   UNL     1     105.399 120.604 128.848  0.00  0.00    +0.105 C 
ATOM     52  C   UNL     1     104.084 121.657 127.155  0.00  0.00    +0.105 C 
ENDBRANCH  47  50
ENDBRANCH  42  44
ENDBRANCH  20  42
TORSDOF 9
ENDMDL
MODEL 8
REMARK VINA RESULT:      -8.0     66.138     70.439
REMARK  Name = 
REMARK  18 active torsions:
REMARK  status: ('A' for Active; 'I' for Inactive)
REMARK    1  A    between atoms: O_1  and  C_18
REMARK    2  A    between atoms: O_1  and  C_26
REMARK    3  A    between atoms: O_5  and  C_29
REMARK    4  A    between atoms: O_5  and  C_43
REMARK    5  A    between atoms: O_6  and  C_30
REMARK    6  A    between atoms: O_6  and  C_40
REMARK    7  A    between atoms: O_8  and  C_31
REMARK    8  A    between atoms: O_8  and  C_47
REMARK    9  A    between atoms: O_9  and  C_32
REMARK   10  A    between atoms: O_9  and  C_49
REMARK   11  A    between atoms: N_11  and  C_45
REMARK   12  A    between atoms: N_11  and  C_51
REMARK   13  A    between atoms: N_11  and  C_52
REMARK   14  A    between atoms: C_27  and  C_34
REMARK   15  A    between atoms: C_33  and  C_39
REMARK   16  A    between atoms: C_36  and  C_41
REMARK   17  A    between atoms: C_41  and  C_48
REMARK   18  A    between atoms: C_46  and  C_50
REMARK                            x       y       z     vdW  Elec       q    Type
REMARK                         _______ _______ _______ _____ _____    ______ ____
ROOT
ATOM      1  O   UNL     1     118.586 129.552 128.986  0.00  0.00    -0.292 OA
ATOM      2  O   UNL     1     115.427 127.048 123.881  0.00  0.00    -0.461 OA
ATOM      3  O   UNL     1     117.561 127.158 123.127  0.00  0.00    -0.251 OA
ATOM      4  C   UNL     1     121.728 128.400 125.443  0.00  0.00    +0.006 C 
ATOM      5  C   UNL     1     120.214 128.500 125.420  0.00  0.00    +0.023 C 
ATOM      6  C   UNL     1     122.233 128.830 126.801  0.00  0.00    +0.018 C 
ATOM      7  C   UNL     1     119.733 127.186 126.105  0.00  0.00    +0.027 C 
ATOM      8  C   UNL     1     122.518 129.092 124.359  0.00  0.00    +0.036 C 
ATOM      9  C   UNL     1     123.713 129.071 126.504  0.00  0.00    +0.039 C 
ATOM     10  C   UNL     1     123.674 129.739 125.105  0.00  0.00    +0.122 C 
ATOM     11  C   UNL     1     118.213 127.542 126.078  0.00  0.00    +0.040 C 
ATOM     12  C   UNL     1     119.354 129.486 126.302  0.00  0.00    -0.015 C 
ATOM     13  C   UNL     1     121.663 127.784 127.760  0.00  0.00    -0.027 C 
ATOM     14  C   UNL     1     120.548 127.054 127.454  0.00  0.00    -0.026 C 
ATOM     15  C   UNL     1     118.235 128.860 126.789  0.00  0.00    -0.004 C 
ATOM     16  C   UNL     1     117.203 126.526 125.490  0.00  0.00    +0.129 C 
ATOM     17  C   UNL     1     117.729 129.232 128.144  0.00  0.00    +0.164 C 
ATOM     18  C   UNL     1     116.254 129.205 128.602  0.00  0.00    +0.086 C 
ATOM     19  C   UNL     1     116.770 126.938 124.045  0.00  0.00    +0.308 C 
ATOM     20  C   UNL     1     115.199 130.070 127.874  0.00  0.00    +0.132 C 
ATOM     21  C   UNL     1     115.782 127.887 129.201  0.00  0.00    +0.018 C 
ATOM     22  C   UNL     1     113.868 129.449 127.399  0.00  0.00    +0.032 C 
ATOM     23  C   UNL     1     114.903 128.391 124.060  0.00  0.00    +0.176 C 
ATOM     24  C   UNL     1     113.550 129.537 125.906  0.00  0.00    +0.006 C 
ATOM     25  C   UNL     1     113.910 128.235 125.214  0.00  0.00    +0.045 C 
ENDROOT
BRANCH  23  26
ATOM     26  C   UNL     1     114.196 128.869 122.772  0.00  0.00    +0.041 C 
ATOM     27  C   UNL     1     114.111 130.389 122.656  0.00  0.00    +0.007 C 
ENDBRANCH  23  26
BRANCH  10  28
ATOM     28  O   UNL     1     124.909 129.604 124.434  0.00  0.00    -0.345 OA
BRANCH  28  30
ATOM     29  O   UNL     1     126.586 130.435 125.979  0.00  0.00    -0.343 OA
ATOM     30  C   UNL     1     126.119 129.356 125.167  0.00  0.00    +0.282 C 
ATOM     31  C   UNL     1     127.260 128.660 124.387  0.00  0.00    +0.205 C 
ATOM     32  C   UNL     1     128.014 129.698 123.535  0.00  0.00    +0.183 C 
ATOM     33  C   UNL     1     128.450 130.948 124.334  0.00  0.00    +0.178 C 
ATOM     34  C   UNL     1     127.388 131.439 125.359  0.00  0.00    +0.150 C 
ATOM     35  C   UNL     1     128.050 132.237 126.479  0.00  0.00    +0.041 C 
BRANCH  31  36
ATOM     36  O   UNL     1     128.088 127.817 125.223  0.00  0.00    -0.372 OA
ATOM     37  C   UNL     1     127.491 127.015 126.228  0.00  0.00    +0.194 C 
ENDBRANCH  31  36
BRANCH  32  38
ATOM     38  O   UNL     1     129.007 129.151 122.648  0.00  0.00    -0.374 OA
ATOM     39  C   UNL     1     128.606 128.789 121.339  0.00  0.00    +0.194 C 
ENDBRANCH  32  38
BRANCH  33  40
ATOM     40  O   UNL     1     128.944 132.003 123.478  0.00  0.00    -0.375 OA
ATOM     41  C   UNL     1     127.992 132.729 122.713  0.00  0.00    +0.194 C 
ENDBRANCH  33  40
ENDBRANCH  28  30
ENDBRANCH  10  28
BRANCH  20  42
ATOM     42  O   UNL     1     115.817 130.896 126.902  0.00  0.00    -0.347 OA
BRANCH  42  44
ATOM     43  O   UNL     1     114.904 133.045 127.435  0.00  0.00    -0.347 OA
ATOM     44  C   UNL     1     116.074 132.243 127.347  0.00  0.00    +0.251 C 
ATOM     45  C   UNL     1     117.300 132.787 126.622  0.00  0.00    +0.063 C 
ATOM     46  C   UNL     1     116.974 133.806 125.558  0.00  0.00    +0.026 C 
ATOM     47  C   UNL     1     115.963 134.865 126.006  0.00  0.00    +0.085 C 
ATOM     48  C   UNL     1     114.712 134.223 126.652  0.00  0.00    +0.135 C 
ATOM     49  C   UNL     1     113.584 134.060 125.622  0.00  0.00    +0.039 C 
BRANCH  47  50
ATOM     50  N   UNL     1     116.583 135.969 126.788  0.00  0.00    -0.303 NA
ATOM     51  C   UNL     1     117.061 137.024 125.881  0.00  0.00    +0.105 C 
ATOM     52  C   UNL     1     115.728 136.576 127.811  0.00  0.00    +0.105 C 
ENDBRANCH  47  50
ENDBRANCH  42  44
ENDBRANCH  20  42
TORSDOF 9
ENDMDL
MODEL 9
REMARK VINA RESULT:      -7.8     78.624     82.609
REMARK  Name = 
REMARK  18 active torsions:
REMARK  status: ('A' for Active; 'I' for Inactive)
REMARK    1  A    between atoms: O_1  and  C_18
REMARK    2  A    between atoms: O_1  and  C_26
REMARK    3  A    between atoms: O_5  and  C_29
REMARK    4  A    between atoms: O_5  and  C_43
REMARK    5  A    between atoms: O_6  and  C_30
REMARK    6  A    between atoms: O_6  and  C_40
REMARK    7  A    between atoms: O_8  and  C_31
REMARK    8  A    between atoms: O_8  and  C_47
REMARK    9  A    between atoms: O_9  and  C_32
REMARK   10  A    between atoms: O_9  and  C_49
REMARK   11  A    between atoms: N_11  and  C_45
REMARK   12  A    between atoms: N_11  and  C_51
REMARK   13  A    between atoms: N_11  and  C_52
REMARK   14  A    between atoms: C_27  and  C_34
REMARK   15  A    between atoms: C_33  and  C_39
REMARK   16  A    between atoms: C_36  and  C_41
REMARK   17  A    between atoms: C_41  and  C_48
REMARK   18  A    between atoms: C_46  and  C_50
REMARK                            x       y       z     vdW  Elec       q    Type
REMARK                         _______ _______ _______ _____ _____    ______ ____
ROOT
ATOM      1  O   UNL     1     146.658 126.659 138.973  0.00  0.00    -0.292 OA
ATOM      2  O   UNL     1     149.383 132.489 138.033  0.00  0.00    -0.461 OA
ATOM      3  O   UNL     1     149.374 131.614 135.943  0.00  0.00    -0.251 OA
ATOM      4  C   UNL     1     147.438 127.422 134.224  0.00  0.00    +0.006 C 
ATOM      5  C   UNL     1     147.948 128.177 135.437  0.00  0.00    +0.023 C 
ATOM      6  C   UNL     1     146.650 126.218 134.683  0.00  0.00    +0.018 C 
ATOM      7  C   UNL     1     146.733 129.043 135.888  0.00  0.00    +0.027 C 
ATOM      8  C   UNL     1     148.425 127.014 133.157  0.00  0.00    +0.036 C 
ATOM      9  C   UNL     1     146.599 125.390 133.400  0.00  0.00    +0.039 C 
ATOM     10  C   UNL     1     148.019 125.589 132.810  0.00  0.00    +0.122 C 
ATOM     11  C   UNL     1     147.418 129.623 137.165  0.00  0.00    +0.040 C 
ATOM     12  C   UNL     1     148.244 127.537 136.849  0.00  0.00    -0.015 C 
ATOM     13  C   UNL     1     145.452 126.816 135.422  0.00  0.00    -0.027 C 
ATOM     14  C   UNL     1     145.488 128.071 135.961  0.00  0.00    -0.026 C 
ATOM     15  C   UNL     1     147.804 128.354 137.860  0.00  0.00    -0.004 C 
ATOM     16  C   UNL     1     147.427 131.154 137.396  0.00  0.00    +0.129 C 
ATOM     17  C   UNL     1     147.265 127.736 139.108  0.00  0.00    +0.164 C 
ATOM     18  C   UNL     1     147.347 128.336 140.528  0.00  0.00    +0.086 C 
ATOM     19  C   UNL     1     148.818 131.768 137.032  0.00  0.00    +0.308 C 
ATOM     20  C   UNL     1     148.723 128.633 141.167  0.00  0.00    +0.132 C 
ATOM     21  C   UNL     1     146.186 129.239 140.922  0.00  0.00    +0.018 C 
ATOM     22  C   UNL     1     149.009 130.007 141.810  0.00  0.00    +0.032 C 
ATOM     23  C   UNL     1     150.306 131.744 138.871  0.00  0.00    +0.176 C 
ATOM     24  C   UNL     1     150.184 130.808 141.251  0.00  0.00    +0.006 C 
ATOM     25  C   UNL     1     149.688 131.853 140.266  0.00  0.00    +0.045 C 
ENDROOT
BRANCH  23  26
ATOM     26  C   UNL     1     151.711 132.385 138.828  0.00  0.00    +0.041 C 
ATOM     27  C   UNL     1     151.750 133.709 138.069  0.00  0.00    +0.007 C 
ENDBRANCH  23  26
BRANCH  10  28
ATOM     28  O   UNL     1     148.042 125.331 131.422  0.00  0.00    -0.345 OA
BRANCH  28  30
ATOM     29  O   UNL     1     150.176 124.189 131.609  0.00  0.00    -0.343 OA
ATOM     30  C   UNL     1     148.970 124.385 130.867  0.00  0.00    +0.282 C 
ATOM     31  C   UNL     1     149.219 124.485 129.343  0.00  0.00    +0.205 C 
ATOM     32  C   UNL     1     150.228 125.612 129.055  0.00  0.00    +0.183 C 
ATOM     33  C   UNL     1     151.512 125.522 129.912  0.00  0.00    +0.178 C 
ATOM     34  C   UNL     1     151.253 125.097 131.386  0.00  0.00    +0.150 C 
ATOM     35  C   UNL     1     152.503 124.463 131.990  0.00  0.00    +0.041 C 
BRANCH  31  36
ATOM     36  O   UNL     1     149.517 123.208 128.732  0.00  0.00    -0.372 OA
ATOM     37  C   UNL     1     148.776 122.775 127.603  0.00  0.00    +0.194 C 
ENDBRANCH  31  36
BRANCH  32  38
ATOM     38  O   UNL     1     150.432 125.903 127.660  0.00  0.00    -0.374 OA
ATOM     39  C   UNL     1     149.522 126.779 127.021  0.00  0.00    +0.194 C 
ENDBRANCH  32  38
BRANCH  33  40
ATOM     40  O   UNL     1     152.334 126.704 129.797  0.00  0.00    -0.375 OA
ATOM     41  C   UNL     1     151.801 127.926 130.288  0.00  0.00    +0.194 C 
ENDBRANCH  33  40
ENDBRANCH  28  30
ENDBRANCH  10  28
BRANCH  20  42
ATOM     42  O   UNL     1     149.770 128.171 140.331  0.00  0.00    -0.347 OA
BRANCH  42  44
ATOM     43  O   UNL     1     151.802 127.376 141.319  0.00  0.00    -0.347 OA
ATOM     44  C   UNL     1     150.498 127.044 140.862  0.00  0.00    +0.251 C 
ATOM     45  C   UNL     1     150.312 125.845 139.940  0.00  0.00    +0.063 C 
ATOM     46  C   UNL     1     151.532 125.519 139.113  0.00  0.00    +0.026 C 
ATOM     47  C   UNL     1     152.838 125.527 139.911  0.00  0.00    +0.085 C 
ATOM     48  C   UNL     1     152.987 126.818 140.752  0.00  0.00    +0.135 C 
ATOM     49  C   UNL     1     153.825 127.866 140.005  0.00  0.00    +0.039 C 
BRANCH  47  50
ATOM     50  N   UNL     1     153.076 124.259 140.652  0.00  0.00    -0.303 NA
ATOM     51  C   UNL     1     154.095 123.452 139.960  0.00  0.00    +0.105 C 
ATOM     52  C   UNL     1     153.466 124.410 142.056  0.00  0.00    +0.105 C 
ENDBRANCH  47  50
ENDBRANCH  42  44
ENDBRANCH  20  42
TORSDOF 9
ENDMDL
MODEL 10
REMARK VINA RESULT:      -7.8     82.861     88.603
REMARK  Name = 
REMARK  18 active torsions:
REMARK  status: ('A' for Active; 'I' for Inactive)
REMARK    1  A    between atoms: O_1  and  C_18
REMARK    2  A    between atoms: O_1  and  C_26
REMARK    3  A    between atoms: O_5  and  C_29
REMARK    4  A    between atoms: O_5  and  C_43
REMARK    5  A    between atoms: O_6  and  C_30
REMARK    6  A    between atoms: O_6  and  C_40
REMARK    7  A    between atoms: O_8  and  C_31
REMARK    8  A    between atoms: O_8  and  C_47
REMARK    9  A    between atoms: O_9  and  C_32
REMARK   10  A    between atoms: O_9  and  C_49
REMARK   11  A    between atoms: N_11  and  C_45
REMARK   12  A    between atoms: N_11  and  C_51
REMARK   13  A    between atoms: N_11  and  C_52
REMARK   14  A    between atoms: C_27  and  C_34
REMARK   15  A    between atoms: C_33  and  C_39
REMARK   16  A    between atoms: C_36  and  C_41
REMARK   17  A    between atoms: C_41  and  C_48
REMARK   18  A    between atoms: C_46  and  C_50
REMARK                            x       y       z     vdW  Elec       q    Type
REMARK                         _______ _______ _______ _____ _____    ______ ____
ROOT
ATOM      1  O   UNL     1     123.915 147.111 139.080  0.00  0.00    -0.292 OA
ATOM      2  O   UNL     1     119.204 151.493 138.131  0.00  0.00    -0.461 OA
ATOM      3  O   UNL     1     120.017 151.193 136.037  0.00  0.00    -0.251 OA
ATOM      4  C   UNL     1     123.393 148.038 134.324  0.00  0.00    +0.006 C 
ATOM      5  C   UNL     1     122.842 148.769 135.534  0.00  0.00    +0.023 C 
ATOM      6  C   UNL     1     124.298 146.922 134.788  0.00  0.00    +0.018 C 
ATOM      7  C   UNL     1     121.647 147.886 136.004  0.00  0.00    +0.027 C 
ATOM      8  C   UNL     1     124.077 148.839 133.243  0.00  0.00    +0.036 C 
ATOM      9  C   UNL     1     125.060 146.604 133.502  0.00  0.00    +0.039 C 
ATOM     10  C   UNL     1     125.304 148.009 132.895  0.00  0.00    +0.122 C 
ATOM     11  C   UNL     1     121.317 148.730 137.275  0.00  0.00    +0.040 C 
ATOM     12  C   UNL     1     123.553 148.868 136.940  0.00  0.00    -0.015 C 
ATOM     13  C   UNL     1     123.365 145.974 135.544  0.00  0.00    -0.027 C 
ATOM     14  C   UNL     1     122.187 146.402 136.089  0.00  0.00    -0.026 C 
ATOM     15  C   UNL     1     122.648 148.713 137.960  0.00  0.00    -0.004 C 
ATOM     16  C   UNL     1     119.865 149.214 137.512  0.00  0.00    +0.129 C 
ATOM     17  C   UNL     1     123.080 148.022 139.211  0.00  0.00    +0.164 C 
ATOM     18  C   UNL     1     122.546 148.301 140.633  0.00  0.00    +0.086 C 
ATOM     19  C   UNL     1     119.708 150.723 137.133  0.00  0.00    +0.308 C 
ATOM     20  C   UNL     1     122.693 149.708 141.256  0.00  0.00    +0.132 C 
ATOM     21  C   UNL     1     121.332 147.480 141.045  0.00  0.00    +0.018 C 
ATOM     22  C   UNL     1     121.480 150.412 141.901  0.00  0.00    +0.032 C 
ATOM     23  C   UNL     1     120.205 152.150 138.954  0.00  0.00    +0.176 C 
ATOM     24  C   UNL     1     121.076 151.771 141.330  0.00  0.00    +0.006 C 
ATOM     25  C   UNL     1     119.922 151.611 140.357  0.00  0.00    +0.045 C 
ENDROOT
BRANCH  23  26
ATOM     26  C   UNL     1     120.028 153.684 138.895  0.00  0.00    +0.041 C 
ATOM     27  C   UNL     1     118.616 154.145 139.244  0.00  0.00    +0.007 C 
ENDBRANCH  23  26
BRANCH  10  28
ATOM     28  O   UNL     1     125.546 147.937 131.506  0.00  0.00    -0.345 OA
BRANCH  28  30
ATOM     29  O   UNL     1     127.185 149.721 131.653  0.00  0.00    -0.343 OA
ATOM     30  C   UNL     1     126.678 148.601 130.923  0.00  0.00    +0.282 C 
ATOM     31  C   UNL     1     126.605 148.867 129.400  0.00  0.00    +0.205 C 
ATOM     32  C   UNL     1     125.756 150.124 129.133  0.00  0.00    +0.183 C 
ATOM     33  C   UNL     1     126.184 151.345 129.980  0.00  0.00    +0.178 C 
ATOM     34  C   UNL     1     126.568 150.989 131.444  0.00  0.00    +0.150 C 
ATOM     35  C   UNL     1     127.507 152.043 132.026  0.00  0.00    +0.041 C 
BRANCH  31  36
ATOM     36  O   UNL     1     127.901 148.839 128.756  0.00  0.00    -0.372 OA
ATOM     37  C   UNL     1     128.236 147.768 127.890  0.00  0.00    +0.194 C 
ENDBRANCH  31  36
BRANCH  32  38
ATOM     38  O   UNL     1     125.491 150.394 127.745  0.00  0.00    -0.374 OA
ATOM     39  C   UNL     1     124.413 149.715 127.127  0.00  0.00    +0.194 C 
ENDBRANCH  32  38
BRANCH  33  40
ATOM     40  O   UNL     1     125.240 152.435 129.888  0.00  0.00    -0.375 OA
ATOM     41  C   UNL     1     123.950 152.237 130.448  0.00  0.00    +0.194 C 
ENDBRANCH  33  40
ENDBRANCH  28  30
ENDBRANCH  10  28
BRANCH  20  42
ATOM     42  O   UNL     1     123.450 150.552 140.405  0.00  0.00    -0.347 OA
BRANCH  42  44
ATOM     43  O   UNL     1     124.883 152.192 141.401  0.00  0.00    -0.347 OA
ATOM     44  C   UNL     1     124.767 150.867 140.901  0.00  0.00    +0.251 C 
ATOM     45  C   UNL     1     125.812 150.342 139.924  0.00  0.00    +0.063 C 
ATOM     46  C   UNL     1     126.480 151.423 139.110  0.00  0.00    +0.026 C 
ATOM     47  C   UNL     1     126.916 152.636 139.936  0.00  0.00    +0.085 C 
ATOM     48  C   UNL     1     125.770 153.158 140.835  0.00  0.00    +0.135 C 
ATOM     49  C   UNL     1     125.017 154.310 140.153  0.00  0.00    +0.039 C 
BRANCH  47  50
ATOM     50  N   UNL     1     128.219 152.434 140.626  0.00  0.00    -0.303 NA
ATOM     51  C   UNL     1     129.285 153.158 139.915  0.00  0.00    +0.105 C 
ATOM     52  C   UNL     1     128.251 152.814 142.040  0.00  0.00    +0.105 C 
ENDBRANCH  47  50
ENDBRANCH  42  44
ENDBRANCH  20  42
TORSDOF 9
ENDMDL
MODEL 11
REMARK VINA RESULT:      -7.8     27.778     33.280
REMARK  Name = 
REMARK  18 active torsions:
REMARK  status: ('A' for Active; 'I' for Inactive)
REMARK    1  A    between atoms: O_1  and  C_18
REMARK    2  A    between atoms: O_1  and  C_26
REMARK    3  A    between atoms: O_5  and  C_29
REMARK    4  A    between atoms: O_5  and  C_43
REMARK    5  A    between atoms: O_6  and  C_30
REMARK    6  A    between atoms: O_6  and  C_40
REMARK    7  A    between atoms: O_8  and  C_31
REMARK    8  A    between atoms: O_8  and  C_47
REMARK    9  A    between atoms: O_9  and  C_32
REMARK   10  A    between atoms: O_9  and  C_49
REMARK   11  A    between atoms: N_11  and  C_45
REMARK   12  A    between atoms: N_11  and  C_51
REMARK   13  A    between atoms: N_11  and  C_52
REMARK   14  A    between atoms: C_27  and  C_34
REMARK   15  A    between atoms: C_33  and  C_39
REMARK   16  A    between atoms: C_36  and  C_41
REMARK   17  A    between atoms: C_41  and  C_48
REMARK   18  A    between atoms: C_46  and  C_50
REMARK                            x       y       z     vdW  Elec       q    Type
REMARK                         _______ _______ _______ _____ _____    ______ ____
ROOT
ATOM      1  O   UNL     1     139.280 130.980  46.980  0.00  0.00    -0.292 OA
ATOM      2  O   UNL     1     135.903 126.816  43.299  0.00  0.00    -0.461 OA
ATOM      3  O   UNL     1     134.515 128.604  43.408  0.00  0.00    -0.251 OA
ATOM      4  C   UNL     1     135.182 133.072  45.376  0.00  0.00    +0.006 C 
ATOM      5  C   UNL     1     135.613 131.617  45.362  0.00  0.00    +0.023 C 
ATOM      6  C   UNL     1     136.223 133.892  46.100  0.00  0.00    +0.018 C 
ATOM      7  C   UNL     1     136.623 131.528  44.179  0.00  0.00    +0.027 C 
ATOM      8  C   UNL     1     133.806 133.415  45.894  0.00  0.00    +0.036 C 
ATOM      9  C   UNL     1     135.445 135.177  46.382  0.00  0.00    +0.039 C 
ATOM     10  C   UNL     1     134.037 134.647  46.756  0.00  0.00    +0.122 C 
ATOM     11  C   UNL     1     137.011 130.035  44.414  0.00  0.00    +0.040 C 
ATOM     12  C   UNL     1     136.542 130.933  46.439  0.00  0.00    -0.015 C 
ATOM     13  C   UNL     1     137.472 133.765  45.227  0.00  0.00    -0.027 C 
ATOM     14  C   UNL     1     137.654 132.712  44.374  0.00  0.00    -0.026 C 
ATOM     15  C   UNL     1     137.450 130.095  45.844  0.00  0.00    -0.004 C 
ATOM     16  C   UNL     1     136.944 129.035  43.233  0.00  0.00    +0.129 C 
ATOM     17  C   UNL     1     138.813 129.963  46.440  0.00  0.00    +0.164 C 
ATOM     18  C   UNL     1     139.704 128.703  46.400  0.00  0.00    +0.086 C 
ATOM     19  C   UNL     1     135.657 128.150  43.319  0.00  0.00    +0.308 C 
ATOM     20  C   UNL     1     139.206 127.380  47.027  0.00  0.00    +0.132 C 
ATOM     21  C   UNL     1     140.631 128.599  45.197  0.00  0.00    +0.018 C 
ATOM     22  C   UNL     1     139.278 126.059  46.231  0.00  0.00    +0.032 C 
ATOM     23  C   UNL     1     136.010 126.200  44.610  0.00  0.00    +0.176 C 
ATOM     24  C   UNL     1     137.966 125.310  46.000  0.00  0.00    +0.006 C 
ATOM     25  C   UNL     1     137.423 125.615  44.615  0.00  0.00    +0.045 C 
ENDROOT
BRANCH  23  26
ATOM     26  C   UNL     1     134.944 125.093  44.774  0.00  0.00    +0.041 C 
ATOM     27  C   UNL     1     135.070 123.973  43.744  0.00  0.00    +0.007 C 
ENDBRANCH  23  26
BRANCH  10  28
ATOM     28  O   UNL     1     133.048 135.638  46.579  0.00  0.00    -0.345 OA
BRANCH  28  30
ATOM     29  O   UNL     1     132.940 137.179  48.451  0.00  0.00    -0.343 OA
ATOM     30  C   UNL     1     133.250 136.972  47.072  0.00  0.00    +0.282 C 
ATOM     31  C   UNL     1     132.738 138.119  46.168  0.00  0.00    +0.205 C 
ATOM     32  C   UNL     1     131.221 138.298  46.367  0.00  0.00    +0.183 C 
ATOM     33  C   UNL     1     130.805 138.414  47.851  0.00  0.00    +0.178 C 
ATOM     34  C   UNL     1     131.584 137.455  48.797  0.00  0.00    +0.150 C 
ATOM     35  C   UNL     1     131.588 137.995  50.225  0.00  0.00    +0.041 C 
BRANCH  31  36
ATOM     36  O   UNL     1     133.529 139.326  46.279  0.00  0.00    -0.372 OA
ATOM     37  C   UNL     1     134.945 139.247  46.259  0.00  0.00    +0.194 C 
ENDBRANCH  31  36
BRANCH  32  38
ATOM     38  O   UNL     1     130.597 139.238  45.473  0.00  0.00    -0.374 OA
ATOM     39  C   UNL     1     130.901 139.149  44.093  0.00  0.00    +0.194 C 
ENDBRANCH  32  38
BRANCH  33  40
ATOM     40  O   UNL     1     129.373 138.347  48.028  0.00  0.00    -0.375 OA
ATOM     41  C   UNL     1     128.765 137.063  47.990  0.00  0.00    +0.194 C 
ENDBRANCH  33  40
ENDBRANCH  28  30
ENDBRANCH  10  28
BRANCH  20  42
ATOM     42  O   UNL     1     137.967 127.576  47.686  0.00  0.00    -0.347 OA
BRANCH  42  44
ATOM     43  O   UNL     1     138.954 128.577  49.626  0.00  0.00    -0.347 OA
ATOM     44  C   UNL     1     138.058 127.594  49.125  0.00  0.00    +0.251 C 
ATOM     45  C   UNL     1     138.153 126.163  49.641  0.00  0.00    +0.063 C 
ATOM     46  C   UNL     1     139.531 125.783  50.127  0.00  0.00    +0.026 C 
ATOM     47  C   UNL     1     140.183 126.839  51.022  0.00  0.00    +0.085 C 
ATOM     48  C   UNL     1     140.118 128.248  50.384  0.00  0.00    +0.135 C 
ATOM     49  C   UNL     1     141.416 128.568  49.627  0.00  0.00    +0.039 C 
BRANCH  47  50
ATOM     50  N   UNL     1     139.729 126.765  52.437  0.00  0.00    -0.303 NA
ATOM     51  C   UNL     1     140.547 125.793  53.180  0.00  0.00    +0.105 C 
ATOM     52  C   UNL     1     139.723 128.035  53.167  0.00  0.00    +0.105 C 
ENDBRANCH  47  50
ENDBRANCH  42  44
ENDBRANCH  20  42
TORSDOF 9
ENDMDL
MODEL 12
REMARK VINA RESULT:      -7.7     81.995     87.201
REMARK  Name = 
REMARK  18 active torsions:
REMARK  status: ('A' for Active; 'I' for Inactive)
REMARK    1  A    between atoms: O_1  and  C_18
REMARK    2  A    between atoms: O_1  and  C_26
REMARK    3  A    between atoms: O_5  and  C_29
REMARK    4  A    between atoms: O_5  and  C_43
REMARK    5  A    between atoms: O_6  and  C_30
REMARK    6  A    between atoms: O_6  and  C_40
REMARK    7  A    between atoms: O_8  and  C_31
REMARK    8  A    between atoms: O_8  and  C_47
REMARK    9  A    between atoms: O_9  and  C_32
REMARK   10  A    between atoms: O_9  and  C_49
REMARK   11  A    between atoms: N_11  and  C_45
REMARK   12  A    between atoms: N_11  and  C_51
REMARK   13  A    between atoms: N_11  and  C_52
REMARK   14  A    between atoms: C_27  and  C_34
REMARK   15  A    between atoms: C_33  and  C_39
REMARK   16  A    between atoms: C_36  and  C_41
REMARK   17  A    between atoms: C_41  and  C_48
REMARK   18  A    between atoms: C_46  and  C_50
REMARK                            x       y       z     vdW  Elec       q    Type
REMARK                         _______ _______ _______ _____ _____    ______ ____
ROOT
ATOM      1  O   UNL     1      97.431 131.587 138.834  0.00  0.00    -0.292 OA
ATOM      2  O   UNL     1      91.719 128.543 138.200  0.00  0.00    -0.461 OA
ATOM      3  O   UNL     1      92.107 129.291 136.097  0.00  0.00    -0.251 OA
ATOM      4  C   UNL     1      96.037 131.551 134.165  0.00  0.00    +0.006 C 
ATOM      5  C   UNL     1      95.260 131.218 135.425  0.00  0.00    +0.023 C 
ATOM      6  C   UNL     1      97.414 132.039 134.545  0.00  0.00    +0.018 C 
ATOM      7  C   UNL     1      95.748 129.789 135.810  0.00  0.00    +0.027 C 
ATOM      8  C   UNL     1      95.418 132.491 133.159  0.00  0.00    +0.036 C 
ATOM      9  C   UNL     1      97.862 132.705 133.245  0.00  0.00    +0.039 C 
ATOM     10  C   UNL     1      96.567 133.403 132.756  0.00  0.00    +0.122 C 
ATOM     11  C   UNL     1      94.940 129.699 137.142  0.00  0.00    +0.040 C 
ATOM     12  C   UNL     1      95.497 131.874 136.841  0.00  0.00    -0.015 C 
ATOM     13  C   UNL     1      98.069 130.828 135.213  0.00  0.00    -0.027 C 
ATOM     14  C   UNL     1      97.329 129.828 135.779  0.00  0.00    -0.026 C 
ATOM     15  C   UNL     1      95.431 130.932 137.836  0.00  0.00    -0.004 C 
ATOM     16  C   UNL     1      94.038 128.468 137.405  0.00  0.00    +0.129 C 
ATOM     17  C   UNL     1      96.314 131.079 139.031  0.00  0.00    +0.164 C 
ATOM     18  C   UNL     1      95.986 130.611 140.466  0.00  0.00    +0.086 C 
ATOM     19  C   UNL     1      92.534 128.810 137.148  0.00  0.00    +0.308 C 
ATOM     20  C   UNL     1      94.749 131.175 141.202  0.00  0.00    +0.132 C 
ATOM     21  C   UNL     1      96.405 129.186 140.799  0.00  0.00    +0.018 C 
ATOM     22  C   UNL     1      93.745 130.226 141.891  0.00  0.00    +0.032 C 
ATOM     23  C   UNL     1      91.478 129.670 139.083  0.00  0.00    +0.176 C 
ATOM     24  C   UNL     1      92.290 130.293 141.429  0.00  0.00    +0.006 C 
ATOM     25  C   UNL     1      92.001 129.182 140.435  0.00  0.00    +0.045 C 
ENDROOT
BRANCH  23  26
ATOM     26  C   UNL     1      89.968 129.991 139.148  0.00  0.00    +0.041 C 
ATOM     27  C   UNL     1      89.083 128.840 138.678  0.00  0.00    +0.007 C 
ENDBRANCH  23  26
BRANCH  10  28
ATOM     28  O   UNL     1      96.609 133.657 131.368  0.00  0.00    -0.345 OA
BRANCH  28  30
ATOM     29  O   UNL     1      95.973 135.996 131.496  0.00  0.00    -0.343 OA
ATOM     30  C   UNL     1      96.780 134.995 130.873  0.00  0.00    +0.282 C 
ATOM     31  C   UNL     1      96.839 135.151 129.334  0.00  0.00    +0.205 C 
ATOM     32  C   UNL     1      95.412 135.141 128.756  0.00  0.00    +0.183 C 
ATOM     33  C   UNL     1      94.455 136.126 129.466  0.00  0.00    +0.178 C 
ATOM     34  C   UNL     1      94.646 136.183 131.009  0.00  0.00    +0.150 C 
ATOM     35  C   UNL     1      94.151 137.517 131.563  0.00  0.00    +0.041 C 
BRANCH  31  36
ATOM     36  O   UNL     1      97.679 136.249 128.907  0.00  0.00    -0.372 OA
ATOM     37  C   UNL     1      98.202 136.267 127.589  0.00  0.00    +0.194 C 
ENDBRANCH  31  36
BRANCH  32  38
ATOM     38  O   UNL     1      95.338 135.132 127.319  0.00  0.00    -0.374 OA
ATOM     39  C   UNL     1      94.770 133.999 126.687  0.00  0.00    +0.194 C 
ENDBRANCH  32  38
BRANCH  33  40
ATOM     40  O   UNL     1      93.078 135.937 129.070  0.00  0.00    -0.375 OA
ATOM     41  C   UNL     1      92.357 134.877 129.683  0.00  0.00    +0.194 C 
ENDBRANCH  33  40
ENDBRANCH  28  30
ENDBRANCH  10  28
BRANCH  20  42
ATOM     42  O   UNL     1      94.129 132.189 140.430  0.00  0.00    -0.347 OA
BRANCH  42  44
ATOM     43  O   UNL     1      93.467 133.903 141.967  0.00  0.00    -0.347 OA
ATOM     44  C   UNL     1      94.352 133.527 140.920  0.00  0.00    +0.251 C 
ATOM     45  C   UNL     1      94.557 134.469 139.739  0.00  0.00    +0.063 C 
ATOM     46  C   UNL     1      93.378 135.373 139.472  0.00  0.00    +0.026 C 
ATOM     47  C   UNL     1      92.806 136.028 140.731  0.00  0.00    +0.085 C 
ATOM     48  C   UNL     1      92.548 134.990 141.850  0.00  0.00    +0.135 C 
ATOM     49  C   UNL     1      91.087 134.516 141.834  0.00  0.00    +0.039 C 
BRANCH  47  50
ATOM     50  N   UNL     1      93.562 137.238 141.155  0.00  0.00    -0.303 NA
ATOM     51  C   UNL     1      93.414 138.303 140.150  0.00  0.00    +0.105 C 
ATOM     52  C   UNL     1      93.209 137.776 142.470  0.00  0.00    +0.105 C 
ENDBRANCH  47  50
ENDBRANCH  42  44
ENDBRANCH  20  42
TORSDOF 9
ENDMDL
MODEL 13
REMARK VINA RESULT:      -7.7     35.902     40.124
REMARK  Name = 
REMARK  18 active torsions:
REMARK  status: ('A' for Active; 'I' for Inactive)
REMARK    1  A    between atoms: O_1  and  C_18
REMARK    2  A    between atoms: O_1  and  C_26
REMARK    3  A    between atoms: O_5  and  C_29
REMARK    4  A    between atoms: O_5  and  C_43
REMARK    5  A    between atoms: O_6  and  C_30
REMARK    6  A    between atoms: O_6  and  C_40
REMARK    7  A    between atoms: O_8  and  C_31
REMARK    8  A    between atoms: O_8  and  C_47
REMARK    9  A    between atoms: O_9  and  C_32
REMARK   10  A    between atoms: O_9  and  C_49
REMARK   11  A    between atoms: N_11  and  C_45
REMARK   12  A    between atoms: N_11  and  C_51
REMARK   13  A    between atoms: N_11  and  C_52
REMARK   14  A    between atoms: C_27  and  C_34
REMARK   15  A    between atoms: C_33  and  C_39
REMARK   16  A    between atoms: C_36  and  C_41
REMARK   17  A    between atoms: C_41  and  C_48
REMARK   18  A    between atoms: C_46  and  C_50
REMARK                            x       y       z     vdW  Elec       q    Type
REMARK                         _______ _______ _______ _____ _____    ______ ____
ROOT
ATOM      1  O   UNL     1     114.725 136.205  42.722  0.00  0.00    -0.292 OA
ATOM      2  O   UNL     1     116.034 137.013  49.041  0.00  0.00    -0.461 OA
ATOM      3  O   UNL     1     113.816 136.553  49.059  0.00  0.00    -0.251 OA
ATOM      4  C   UNL     1     110.778 135.234  45.410  0.00  0.00    +0.006 C 
ATOM      5  C   UNL     1     112.085 135.905  45.790  0.00  0.00    +0.023 C 
ATOM      6  C   UNL     1     110.781 134.944  43.928  0.00  0.00    +0.018 C 
ATOM      7  C   UNL     1     113.092 134.726  45.940  0.00  0.00    +0.027 C 
ATOM      8  C   UNL     1     109.481 135.899  45.801  0.00  0.00    +0.036 C 
ATOM      9  C   UNL     1     109.296 134.689  43.673  0.00  0.00    +0.039 C 
ATOM     10  C   UNL     1     108.610 135.758  44.562  0.00  0.00    +0.122 C 
ATOM     11  C   UNL     1     114.344 135.620  46.206  0.00  0.00    +0.040 C 
ATOM     12  C   UNL     1     112.975 136.777  44.821  0.00  0.00    -0.015 C 
ATOM     13  C   UNL     1     111.916 133.935  43.747  0.00  0.00    -0.027 C 
ATOM     14  C   UNL     1     112.947 133.838  44.639  0.00  0.00    -0.026 C 
ATOM     15  C   UNL     1     114.307 136.499  44.994  0.00  0.00    -0.004 C 
ATOM     16  C   UNL     1     115.235 135.335  47.441  0.00  0.00    +0.129 C 
ATOM     17  C   UNL     1     115.217 136.546  43.811  0.00  0.00    +0.164 C 
ATOM     18  C   UNL     1     116.713 136.928  43.830  0.00  0.00    +0.086 C 
ATOM     19  C   UNL     1     114.938 136.350  48.593  0.00  0.00    +0.308 C 
ATOM     20  C   UNL     1     117.152 138.322  44.333  0.00  0.00    +0.132 C 
ATOM     21  C   UNL     1     117.678 135.771  44.052  0.00  0.00    +0.018 C 
ATOM     22  C   UNL     1     118.281 138.460  45.377  0.00  0.00    +0.032 C 
ATOM     23  C   UNL     1     116.260 138.304  48.414  0.00  0.00    +0.176 C 
ATOM     24  C   UNL     1     117.939 139.169  46.687  0.00  0.00    +0.006 C 
ATOM     25  C   UNL     1     117.641 138.152  47.774  0.00  0.00    +0.045 C 
ENDROOT
BRANCH  23  26
ATOM     26  C   UNL     1     116.254 139.426  49.477  0.00  0.00    +0.041 C 
ATOM     27  C   UNL     1     114.976 140.260  49.469  0.00  0.00    +0.007 C 
ENDBRANCH  23  26
BRANCH  10  28
ATOM     28  O   UNL     1     107.277 135.402  44.862  0.00  0.00    -0.345 OA
BRANCH  28  30
ATOM     29  O   UNL     1     105.605 137.160  44.806  0.00  0.00    -0.343 OA
ATOM     30  C   UNL     1     106.180 136.017  44.169  0.00  0.00    +0.282 C 
ATOM     31  C   UNL     1     105.111 135.057  43.593  0.00  0.00    +0.205 C 
ATOM     32  C   UNL     1     104.140 134.631  44.710  0.00  0.00    +0.183 C 
ATOM     33  C   UNL     1     103.569 135.821  45.514  0.00  0.00    +0.178 C 
ATOM     34  C   UNL     1     104.610 136.940  45.804  0.00  0.00    +0.150 C 
ATOM     35  C   UNL     1     103.912 138.276  46.041  0.00  0.00    +0.041 C 
BRANCH  31  36
ATOM     36  O   UNL     1     104.492 135.556  42.384  0.00  0.00    -0.372 OA
ATOM     37  C   UNL     1     105.263 136.290  41.447  0.00  0.00    +0.194 C 
ENDBRANCH  31  36
BRANCH  32  38
ATOM     38  O   UNL     1     103.186 133.621  44.333  0.00  0.00    -0.374 OA
ATOM     39  C   UNL     1     103.500 132.269  44.610  0.00  0.00    +0.194 C 
ENDBRANCH  32  38
BRANCH  33  40
ATOM     40  O   UNL     1     102.851 135.394  46.693  0.00  0.00    -0.375 OA
ATOM     41  C   UNL     1     101.439 135.553  46.697  0.00  0.00    +0.194 C 
ENDBRANCH  33  40
ENDBRANCH  28  30
ENDBRANCH  10  28
BRANCH  20  42
ATOM     42  O   UNL     1     116.022 139.129  44.613  0.00  0.00    -0.347 OA
BRANCH  42  44
ATOM     43  O   UNL     1     116.726 140.226  42.604  0.00  0.00    -0.347 OA
ATOM     44  C   UNL     1     115.877 140.270  43.743  0.00  0.00    +0.251 C 
ATOM     45  C   UNL     1     115.819 141.540  44.584  0.00  0.00    +0.063 C 
ATOM     46  C   UNL     1     117.080 142.368  44.522  0.00  0.00    +0.026 C 
ATOM     47  C   UNL     1     117.627 142.553  43.105  0.00  0.00    +0.085 C 
ATOM     48  C   UNL     1     117.735 141.205  42.352  0.00  0.00    +0.135 C 
ATOM     49  C   UNL     1     119.152 140.624  42.466  0.00  0.00    +0.039 C 
BRANCH  47  50
ATOM     50  N   UNL     1     116.946 143.643  42.354  0.00  0.00    -0.303 NA
ATOM     51  C   UNL     1     116.676 144.780  43.249  0.00  0.00    +0.105 C 
ATOM     52  C   UNL     1     117.653 144.132  41.168  0.00  0.00    +0.105 C 
ENDBRANCH  47  50
ENDBRANCH  42  44
ENDBRANCH  20  42
TORSDOF 9
ENDMDL
MODEL 14
REMARK VINA RESULT:      -7.7     94.827     99.190
REMARK  Name = 
REMARK  18 active torsions:
REMARK  status: ('A' for Active; 'I' for Inactive)
REMARK    1  A    between atoms: O_1  and  C_18
REMARK    2  A    between atoms: O_1  and  C_26
REMARK    3  A    between atoms: O_5  and  C_29
REMARK    4  A    between atoms: O_5  and  C_43
REMARK    5  A    between atoms: O_6  and  C_30
REMARK    6  A    between atoms: O_6  and  C_40
REMARK    7  A    between atoms: O_8  and  C_31
REMARK    8  A    between atoms: O_8  and  C_47
REMARK    9  A    between atoms: O_9  and  C_32
REMARK   10  A    between atoms: O_9  and  C_49
REMARK   11  A    between atoms: N_11  and  C_45
REMARK   12  A    between atoms: N_11  and  C_51
REMARK   13  A    between atoms: N_11  and  C_52
REMARK   14  A    between atoms: C_27  and  C_34
REMARK   15  A    between atoms: C_33  and  C_39
REMARK   16  A    between atoms: C_36  and  C_41
REMARK   17  A    between atoms: C_41  and  C_48
REMARK   18  A    between atoms: C_46  and  C_50
REMARK                            x       y       z     vdW  Elec       q    Type
REMARK                         _______ _______ _______ _____ _____    ______ ____
ROOT
ATOM      1  O   UNL     1     121.200 128.810 159.529  0.00  0.00    -0.292 OA
ATOM      2  O   UNL     1     122.432 135.058 158.209  0.00  0.00    -0.461 OA
ATOM      3  O   UNL     1     121.561 134.310 156.255  0.00  0.00    -0.251 OA
ATOM      4  C   UNL     1     119.583 129.954 155.077  0.00  0.00    +0.006 C 
ATOM      5  C   UNL     1     120.500 130.716 156.015  0.00  0.00    +0.023 C 
ATOM      6  C   UNL     1     119.254 128.611 155.686  0.00  0.00    +0.018 C 
ATOM      7  C   UNL     1     119.538 131.339 157.070  0.00  0.00    +0.027 C 
ATOM      8  C   UNL     1     120.003 129.777 153.638  0.00  0.00    +0.036 C 
ATOM      9  C   UNL     1     118.716 127.859 154.470  0.00  0.00    +0.039 C 
ATOM     10  C   UNL     1     119.662 128.326 153.333  0.00  0.00    +0.122 C 
ATOM     11  C   UNL     1     120.660 131.954 157.964  0.00  0.00    +0.040 C 
ATOM     12  C   UNL     1     121.495 130.058 157.049  0.00  0.00    -0.015 C 
ATOM     13  C   UNL     1     118.472 128.957 156.954  0.00  0.00    -0.027 C 
ATOM     14  C   UNL     1     118.600 130.169 157.573  0.00  0.00    -0.026 C 
ATOM     15  C   UNL     1     121.479 130.732 158.244  0.00  0.00    -0.004 C 
ATOM     16  C   UNL     1     120.586 133.450 158.358  0.00  0.00    +0.129 C 
ATOM     17  C   UNL     1     121.661 129.964 159.511  0.00  0.00    +0.164 C 
ATOM     18  C   UNL     1     122.319 130.490 160.805  0.00  0.00    +0.086 C 
ATOM     19  C   UNL     1     121.560 134.309 157.486  0.00  0.00    +0.308 C 
ATOM     20  C   UNL     1     123.786 130.978 160.787  0.00  0.00    +0.132 C 
ATOM     21  C   UNL     1     121.373 131.162 161.790  0.00  0.00    +0.018 C 
ATOM     22  C   UNL     1     124.166 132.343 161.400  0.00  0.00    +0.032 C 
ATOM     23  C   UNL     1     123.722 134.433 158.439  0.00  0.00    +0.176 C 
ATOM     24  C   UNL     1     124.837 133.360 160.478  0.00  0.00    +0.006 C 
ATOM     25  C   UNL     1     123.816 134.359 159.964  0.00  0.00    +0.045 C 
ENDROOT
BRANCH  23  26
ATOM     26  C   UNL     1     124.855 135.303 157.849  0.00  0.00    +0.041 C 
ATOM     27  C   UNL     1     124.987 136.666 158.523  0.00  0.00    +0.007 C 
ENDBRANCH  23  26
BRANCH  10  28
ATOM     28  O   UNL     1     119.070 128.152 152.064  0.00  0.00    -0.345 OA
BRANCH  28  30
ATOM     29  O   UNL     1     118.747 129.748 150.265  0.00  0.00    -0.343 OA
ATOM     30  C   UNL     1     119.611 128.808 150.906  0.00  0.00    +0.282 C 
ATOM     31  C   UNL     1     120.361 127.905 149.898  0.00  0.00    +0.205 C 
ATOM     32  C   UNL     1     119.346 127.185 148.991  0.00  0.00    +0.183 C 
ATOM     33  C   UNL     1     118.309 128.138 148.353  0.00  0.00    +0.178 C 
ATOM     34  C   UNL     1     117.806 129.252 149.315  0.00  0.00    +0.150 C 
ATOM     35  C   UNL     1     117.293 130.453 148.525  0.00  0.00    +0.041 C 
BRANCH  31  36
ATOM     36  O   UNL     1     121.436 128.591 149.213  0.00  0.00    -0.372 OA
ATOM     37  C   UNL     1     122.759 128.086 149.291  0.00  0.00    +0.194 C 
ENDBRANCH  31  36
BRANCH  32  38
ATOM     38  O   UNL     1     119.913 126.203 148.105  0.00  0.00    -0.374 OA
ATOM     39  C   UNL     1     120.505 125.051 148.677  0.00  0.00    +0.194 C 
ENDBRANCH  32  38
BRANCH  33  40
ATOM     40  O   UNL     1     117.236 127.425 147.699  0.00  0.00    -0.375 OA
ATOM     41  C   UNL     1     117.157 127.509 146.283  0.00  0.00    +0.194 C 
ENDBRANCH  33  40
ENDBRANCH  28  30
ENDBRANCH  10  28
BRANCH  20  42
ATOM     42  O   UNL     1     124.373 130.745 159.519  0.00  0.00    -0.347 OA
BRANCH  42  44
ATOM     43  O   UNL     1     125.275 128.888 158.304  0.00  0.00    -0.347 OA
ATOM     44  C   UNL     1     125.324 129.662 159.496  0.00  0.00    +0.251 C 
ATOM     45  C   UNL     1     125.316 128.955 160.847  0.00  0.00    +0.063 C 
ATOM     46  C   UNL     1     124.637 127.607 160.823  0.00  0.00    +0.026 C 
ATOM     47  C   UNL     1     125.047 126.731 159.636  0.00  0.00    +0.085 C 
ATOM     48  C   UNL     1     124.944 127.499 158.296  0.00  0.00    +0.135 C 
ATOM     49  C   UNL     1     123.598 127.225 157.608  0.00  0.00    +0.039 C 
BRANCH  47  50
ATOM     50  N   UNL     1     126.332 126.014 159.857  0.00  0.00    -0.303 NA
ATOM     51  C   UNL     1     126.116 124.560 159.795  0.00  0.00    +0.105 C 
ATOM     52  C   UNL     1     127.420 126.370 158.943  0.00  0.00    +0.105 C 
ENDBRANCH  47  50
ENDBRANCH  42  44
ENDBRANCH  20  42
TORSDOF 9
ENDMDL
MODEL 15
REMARK VINA RESULT:      -7.7     79.644     83.573
REMARK  Name = 
REMARK  18 active torsions:
REMARK  status: ('A' for Active; 'I' for Inactive)
REMARK    1  A    between atoms: O_1  and  C_18
REMARK    2  A    between atoms: O_1  and  C_26
REMARK    3  A    between atoms: O_5  and  C_29
REMARK    4  A    between atoms: O_5  and  C_43
REMARK    5  A    between atoms: O_6  and  C_30
REMARK    6  A    between atoms: O_6  and  C_40
REMARK    7  A    between atoms: O_8  and  C_31
REMARK    8  A    between atoms: O_8  and  C_47
REMARK    9  A    between atoms: O_9  and  C_32
REMARK   10  A    between atoms: O_9  and  C_49
REMARK   11  A    between atoms: N_11  and  C_45
REMARK   12  A    between atoms: N_11  and  C_51
REMARK   13  A    between atoms: N_11  and  C_52
REMARK   14  A    between atoms: C_27  and  C_34
REMARK   15  A    between atoms: C_33  and  C_39
REMARK   16  A    between atoms: C_36  and  C_41
REMARK   17  A    between atoms: C_41  and  C_48
REMARK   18  A    between atoms: C_46  and  C_50
REMARK                            x       y       z     vdW  Elec       q    Type
REMARK                         _______ _______ _______ _____ _____    ______ ____
ROOT
ATOM      1  O   UNL     1     150.668 130.301 139.274  0.00  0.00    -0.292 OA
ATOM      2  O   UNL     1     144.870 128.794 141.808  0.00  0.00    -0.461 OA
ATOM      3  O   UNL     1     144.816 127.734 139.806  0.00  0.00    -0.251 OA
ATOM      4  C   UNL     1     148.299 127.194 136.361  0.00  0.00    +0.006 C 
ATOM      5  C   UNL     1     147.803 128.005 137.545  0.00  0.00    +0.023 C 
ATOM      6  C   UNL     1     149.739 127.553 136.083  0.00  0.00    +0.018 C 
ATOM      7  C   UNL     1     148.322 127.223 138.788  0.00  0.00    +0.027 C 
ATOM      8  C   UNL     1     147.504 127.225 135.078  0.00  0.00    +0.036 C 
ATOM      9  C   UNL     1     149.914 126.999 134.669  0.00  0.00    +0.039 C 
ATOM     10  C   UNL     1     148.564 127.353 133.995  0.00  0.00    +0.122 C 
ATOM     11  C   UNL     1     147.819 128.255 139.846  0.00  0.00    +0.040 C 
ATOM     12  C   UNL     1     148.358 129.417 137.978  0.00  0.00    -0.015 C 
ATOM     13  C   UNL     1     150.488 127.092 137.334  0.00  0.00    -0.027 C 
ATOM     14  C   UNL     1     149.860 126.947 138.540  0.00  0.00    -0.026 C 
ATOM     15  C   UNL     1     148.482 129.499 139.342  0.00  0.00    -0.004 C 
ATOM     16  C   UNL     1     146.960 127.766 141.038  0.00  0.00    +0.129 C 
ATOM     17  C   UNL     1     149.606 130.294 139.920  0.00  0.00    +0.164 C 
ATOM     18  C   UNL     1     149.582 131.058 141.262  0.00  0.00    +0.086 C 
ATOM     19  C   UNL     1     145.446 128.081 140.806  0.00  0.00    +0.308 C 
ATOM     20  C   UNL     1     148.549 132.184 141.496  0.00  0.00    +0.132 C 
ATOM     21  C   UNL     1     150.023 130.253 142.477  0.00  0.00    +0.018 C 
ATOM     22  C   UNL     1     147.692 132.209 142.779  0.00  0.00    +0.032 C 
ATOM     23  C   UNL     1     144.858 130.231 141.599  0.00  0.00    +0.176 C 
ATOM     24  C   UNL     1     146.174 132.183 142.605  0.00  0.00    +0.006 C 
ATOM     25  C   UNL     1     145.646 130.771 142.794  0.00  0.00    +0.045 C 
ENDROOT
BRANCH  23  26
ATOM     26  C   UNL     1     143.407 130.763 141.598  0.00  0.00    +0.041 C 
ATOM     27  C   UNL     1     142.638 130.429 142.874  0.00  0.00    +0.007 C 
ENDBRANCH  23  26
BRANCH  10  28
ATOM     28  O   UNL     1     148.313 126.529 132.877  0.00  0.00    -0.345 OA
BRANCH  28  30
ATOM     29  O   UNL     1     147.825 126.273 130.513  0.00  0.00    -0.343 OA
ATOM     30  C   UNL     1     148.452 127.042 131.542  0.00  0.00    +0.282 C 
ATOM     31  C   UNL     1     149.865 127.531 131.142  0.00  0.00    +0.205 C 
ATOM     32  C   UNL     1     150.740 126.326 130.749  0.00  0.00    +0.183 C 
ATOM     33  C   UNL     1     150.067 125.390 129.718  0.00  0.00    +0.178 C 
ATOM     34  C   UNL     1     148.548 125.172 129.967  0.00  0.00    +0.150 C 
ATOM     35  C   UNL     1     147.842 124.773 128.673  0.00  0.00    +0.041 C 
BRANCH  31  36
ATOM     36  O   UNL     1     149.840 128.622 130.191  0.00  0.00    -0.372 OA
ATOM     37  C   UNL     1     149.940 129.960 130.648  0.00  0.00    +0.194 C 
ENDBRANCH  31  36
BRANCH  32  38
ATOM     38  O   UNL     1     152.122 126.635 130.496  0.00  0.00    -0.374 OA
ATOM     39  C   UNL     1     152.945 126.967 131.600  0.00  0.00    +0.194 C 
ENDBRANCH  32  38
BRANCH  33  40
ATOM     40  O   UNL     1     150.797 124.155 129.539  0.00  0.00    -0.375 OA
ATOM     41  C   UNL     1     151.575 124.017 128.359  0.00  0.00    +0.194 C 
ENDBRANCH  33  40
ENDBRANCH  28  30
ENDBRANCH  10  28
BRANCH  20  42
ATOM     42  O   UNL     1     147.807 132.432 140.315  0.00  0.00    -0.347 OA
BRANCH  42  44
ATOM     43  O   UNL     1     147.650 133.777 138.339  0.00  0.00    -0.347 OA
ATOM     44  C   UNL     1     148.097 133.696 139.686  0.00  0.00    +0.251 C 
ATOM     45  C   UNL     1     149.523 134.113 140.027  0.00  0.00    +0.063 C 
ATOM     46  C   UNL     1     150.490 133.965 138.877  0.00  0.00    +0.026 C 
ATOM     47  C   UNL     1     149.957 134.506 137.549  0.00  0.00    +0.085 C 
ATOM     48  C   UNL     1     148.540 133.967 137.238  0.00  0.00    +0.135 C 
ATOM     49  C   UNL     1     148.610 132.733 136.326  0.00  0.00    +0.039 C 
BRANCH  47  50
ATOM     50  N   UNL     1     150.115 135.980 137.414  0.00  0.00    -0.303 NA
ATOM     51  C   UNL     1     151.543 136.330 137.337  0.00  0.00    +0.105 C 
ATOM     52  C   UNL     1     149.417 136.591 136.281  0.00  0.00    +0.105 C 
ENDBRANCH  47  50
ENDBRANCH  42  44
ENDBRANCH  20  42
TORSDOF 9
ENDMDL
MODEL 16
REMARK VINA RESULT:      -7.7      9.981     15.663
REMARK  Name = 
REMARK  18 active torsions:
REMARK  status: ('A' for Active; 'I' for Inactive)
REMARK    1  A    between atoms: O_1  and  C_18
REMARK    2  A    between atoms: O_1  and  C_26
REMARK    3  A    between atoms: O_5  and  C_29
REMARK    4  A    between atoms: O_5  and  C_43
REMARK    5  A    between atoms: O_6  and  C_30
REMARK    6  A    between atoms: O_6  and  C_40
REMARK    7  A    between atoms: O_8  and  C_31
REMARK    8  A    between atoms: O_8  and  C_47
REMARK    9  A    between atoms: O_9  and  C_32
REMARK   10  A    between atoms: O_9  and  C_49
REMARK   11  A    between atoms: N_11  and  C_45
REMARK   12  A    between atoms: N_11  and  C_51
REMARK   13  A    between atoms: N_11  and  C_52
REMARK   14  A    between atoms: C_27  and  C_34
REMARK   15  A    between atoms: C_33  and  C_39
REMARK   16  A    between atoms: C_36  and  C_41
REMARK   17  A    between atoms: C_41  and  C_48
REMARK   18  A    between atoms: C_46  and  C_50
REMARK                            x       y       z     vdW  Elec       q    Type
REMARK                         _______ _______ _______ _____ _____    ______ ____
ROOT
ATOM      1  O   UNL     1     130.779 117.820  63.807  0.00  0.00    -0.292 OA
ATOM      2  O   UNL     1     133.414 117.431  69.740  0.00  0.00    -0.461 OA
ATOM      3  O   UNL     1     131.588 116.102  69.930  0.00  0.00    -0.251 OA
ATOM      4  C   UNL     1     128.316 114.635  66.552  0.00  0.00    +0.006 C 
ATOM      5  C   UNL     1     129.360 115.666  66.939  0.00  0.00    +0.023 C 
ATOM      6  C   UNL     1     128.010 114.768  65.078  0.00  0.00    +0.018 C 
ATOM      7  C   UNL     1     130.712 115.018  66.518  0.00  0.00    +0.027 C 
ATOM      8  C   UNL     1     127.030 114.574  67.339  0.00  0.00    +0.036 C 
ATOM      9  C   UNL     1     126.697 113.994  64.977  0.00  0.00    +0.039 C 
ATOM     10  C   UNL     1     125.956 114.409  66.274  0.00  0.00    +0.122 C 
ATOM     11  C   UNL     1     131.599 116.249  66.887  0.00  0.00    +0.040 C 
ATOM     12  C   UNL     1     129.590 117.047  66.211  0.00  0.00    -0.015 C 
ATOM     13  C   UNL     1     129.327 114.407  64.390  0.00  0.00    -0.027 C 
ATOM     14  C   UNL     1     130.531 114.521  65.027  0.00  0.00    -0.026 C 
ATOM     15  C   UNL     1     130.928 117.314  66.075  0.00  0.00    -0.004 C 
ATOM     16  C   UNL     1     132.837 116.051  67.797  0.00  0.00    +0.129 C 
ATOM     17  C   UNL     1     131.402 118.040  64.860  0.00  0.00    +0.164 C 
ATOM     18  C   UNL     1     132.617 118.990  64.785  0.00  0.00    +0.086 C 
ATOM     19  C   UNL     1     132.537 116.513  69.260  0.00  0.00    +0.308 C 
ATOM     20  C   UNL     1     132.666 120.258  65.669  0.00  0.00    +0.132 C 
ATOM     21  C   UNL     1     133.943 118.326  64.444  0.00  0.00    +0.018 C 
ATOM     22  C   UNL     1     133.919 120.577  66.513  0.00  0.00    +0.032 C 
ATOM     23  C   UNL     1     132.997 118.812  69.574  0.00  0.00    +0.176 C 
ATOM     24  C   UNL     1     133.727 120.713  68.023  0.00  0.00    +0.006 C 
ATOM     25  C   UNL     1     134.112 119.421  68.722  0.00  0.00    +0.045 C 
ENDROOT
BRANCH  23  26
ATOM     26  C   UNL     1     132.895 119.512  70.948  0.00  0.00    +0.041 C 
ATOM     27  C   UNL     1     131.520 120.115  71.220  0.00  0.00    +0.007 C 
ENDBRANCH  23  26
BRANCH  10  28
ATOM     28  O   UNL     1     124.967 113.467  66.629  0.00  0.00    -0.345 OA
BRANCH  28  30
ATOM     29  O   UNL     1     125.815 111.324  67.389  0.00  0.00    -0.343 OA
ATOM     30  C   UNL     1     125.177 112.559  67.722  0.00  0.00    +0.282 C 
ATOM     31  C   UNL     1     123.986 112.371  68.692  0.00  0.00    +0.205 C 
ATOM     32  C   UNL     1     122.976 111.378  68.088  0.00  0.00    +0.183 C 
ATOM     33  C   UNL     1     123.625 110.061  67.602  0.00  0.00    +0.178 C 
ATOM     34  C   UNL     1     125.000 110.259  66.904  0.00  0.00    +0.150 C 
ATOM     35  C   UNL     1     125.835 108.984  66.986  0.00  0.00    +0.041 C 
BRANCH  31  36
ATOM     36  O   UNL     1     124.400 112.092  70.051  0.00  0.00    -0.372 OA
ATOM     37  C   UNL     1     124.034 112.978  71.096  0.00  0.00    +0.194 C 
ENDBRANCH  31  36
BRANCH  32  38
ATOM     38  O   UNL     1     121.751 111.229  68.829  0.00  0.00    -0.374 OA
ATOM     39  C   UNL     1     120.556 111.714  68.247  0.00  0.00    +0.194 C 
ENDBRANCH  32  38
BRANCH  33  40
ATOM     40  O   UNL     1     122.710 109.247  66.835  0.00  0.00    -0.375 OA
ATOM     41  C   UNL     1     122.265 108.030  67.417  0.00  0.00    +0.194 C 
ENDBRANCH  33  40
ENDBRANCH  28  30
ENDBRANCH  10  28
BRANCH  20  42
ATOM     42  O   UNL     1     131.450 120.418  66.378  0.00  0.00    -0.347 OA
BRANCH  42  44
ATOM     43  O   UNL     1     129.235 121.290  66.111  0.00  0.00    -0.347 OA
ATOM     44  C   UNL     1     130.625 121.501  65.903  0.00  0.00    +0.251 C 
ATOM     45  C   UNL     1     131.117 121.944  64.530  0.00  0.00    +0.063 C 
ATOM     46  C   UNL     1     130.218 121.516  63.395  0.00  0.00    +0.026 C 
ATOM     47  C   UNL     1     128.731 121.760  63.661  0.00  0.00    +0.085 C 
ATOM     48  C   UNL     1     128.296 121.204  65.039  0.00  0.00    +0.135 C 
ATOM     49  C   UNL     1     127.700 119.795  64.899  0.00  0.00    +0.039 C 
BRANCH  47  50
ATOM     50  N   UNL     1     128.311 123.161  63.385  0.00  0.00    -0.303 NA
ATOM     51  C   UNL     1     128.773 123.573  62.050  0.00  0.00    +0.105 C 
ATOM     52  C   UNL     1     126.874 123.424  63.490  0.00  0.00    +0.105 C 
ENDBRANCH  47  50
ENDBRANCH  42  44
ENDBRANCH  20  42
TORSDOF 9
ENDMDL
MODEL 17
REMARK VINA RESULT:      -7.7     13.469     18.854
REMARK  Name = 
REMARK  18 active torsions:
REMARK  status: ('A' for Active; 'I' for Inactive)
REMARK    1  A    between atoms: O_1  and  C_18
REMARK    2  A    between atoms: O_1  and  C_26
REMARK    3  A    between atoms: O_5  and  C_29
REMARK    4  A    between atoms: O_5  and  C_43
REMARK    5  A    between atoms: O_6  and  C_30
REMARK    6  A    between atoms: O_6  and  C_40
REMARK    7  A    between atoms: O_8  and  C_31
REMARK    8  A    between atoms: O_8  and  C_47
REMARK    9  A    between atoms: O_9  and  C_32
REMARK   10  A    between atoms: O_9  and  C_49
REMARK   11  A    between atoms: N_11  and  C_45
REMARK   12  A    between atoms: N_11  and  C_51
REMARK   13  A    between atoms: N_11  and  C_52
REMARK   14  A    between atoms: C_27  and  C_34
REMARK   15  A    between atoms: C_33  and  C_39
REMARK   16  A    between atoms: C_36  and  C_41
REMARK   17  A    between atoms: C_41  and  C_48
REMARK   18  A    between atoms: C_46  and  C_50
REMARK                            x       y       z     vdW  Elec       q    Type
REMARK                         _______ _______ _______ _____ _____    ______ ____
ROOT
ATOM      1  O   UNL     1     133.603 121.881  67.186  0.00  0.00    -0.292 OA
ATOM      2  O   UNL     1     131.618 115.689  67.096  0.00  0.00    -0.461 OA
ATOM      3  O   UNL     1     132.220 116.038  64.939  0.00  0.00    -0.251 OA
ATOM      4  C   UNL     1     134.360 119.921  62.789  0.00  0.00    +0.006 C 
ATOM      5  C   UNL     1     133.544 119.414  63.964  0.00  0.00    +0.023 C 
ATOM      6  C   UNL     1     134.903 121.292  63.117  0.00  0.00    +0.018 C 
ATOM      7  C   UNL     1     134.607 118.846  64.952  0.00  0.00    +0.027 C 
ATOM      8  C   UNL     1     133.728 119.932  61.419  0.00  0.00    +0.036 C 
ATOM      9  C   UNL     1     135.300 121.792  61.728  0.00  0.00    +0.039 C 
ATOM     10  C   UNL     1     134.143 121.274  60.836  0.00  0.00    +0.122 C 
ATOM     11  C   UNL     1     133.596 118.501  66.090  0.00  0.00    +0.040 C 
ATOM     12  C   UNL     1     132.795 120.325  65.013  0.00  0.00    -0.015 C 
ATOM     13  C   UNL     1     135.848 121.048  64.294  0.00  0.00    -0.027 C 
ATOM     14  C   UNL     1     135.716 119.963  65.115  0.00  0.00    -0.026 C 
ATOM     15  C   UNL     1     132.947 119.836  66.286  0.00  0.00    -0.004 C 
ATOM     16  C   UNL     1     133.599 117.080  66.707  0.00  0.00    +0.129 C 
ATOM     17  C   UNL     1     133.044 120.797  67.424  0.00  0.00    +0.164 C 
ATOM     18  C   UNL     1     132.562 120.545  68.870  0.00  0.00    +0.086 C 
ATOM     19  C   UNL     1     132.423 116.220  66.141  0.00  0.00    +0.308 C 
ATOM     20  C   UNL     1     131.075 120.229  69.148  0.00  0.00    +0.132 C 
ATOM     21  C   UNL     1     133.594 119.921  69.800  0.00  0.00    +0.018 C 
ATOM     22  C   UNL     1     130.680 119.021  70.025  0.00  0.00    +0.032 C 
ATOM     23  C   UNL     1     130.444 116.483  67.410  0.00  0.00    +0.176 C 
ATOM     24  C   UNL     1     129.778 117.963  69.390  0.00  0.00    +0.006 C 
ATOM     25  C   UNL     1     130.608 116.790  68.899  0.00  0.00    +0.045 C 
ENDROOT
BRANCH  23  26
ATOM     26  C   UNL     1     129.156 115.671  67.143  0.00  0.00    +0.041 C 
ATOM     27  C   UNL     1     129.325 114.605  66.064  0.00  0.00    +0.007 C 
ENDBRANCH  23  26
BRANCH  10  28
ATOM     28  O   UNL     1     134.532 121.191  59.482  0.00  0.00    -0.345 OA
BRANCH  28  30
ATOM     29  O   UNL     1     136.228 122.107  58.007  0.00  0.00    -0.343 OA
ATOM     30  C   UNL     1     135.919 121.255  59.112  0.00  0.00    +0.282 C 
ATOM     31  C   UNL     1     136.672 119.904  59.052  0.00  0.00    +0.205 C 
ATOM     32  C   UNL     1     136.369 119.200  57.716  0.00  0.00    +0.183 C 
ATOM     33  C   UNL     1     136.576 120.108  56.482  0.00  0.00    +0.178 C 
ATOM     34  C   UNL     1     136.093 121.572  56.692  0.00  0.00    +0.150 C 
ATOM     35  C   UNL     1     136.825 122.521  55.747  0.00  0.00    +0.041 C 
BRANCH  31  36
ATOM     36  O   UNL     1     138.074 120.020  59.393  0.00  0.00    -0.372 OA
ATOM     37  C   UNL     1     138.460 120.174  60.749  0.00  0.00    +0.194 C 
ENDBRANCH  31  36
BRANCH  32  38
ATOM     38  O   UNL     1     136.894 117.865  57.599  0.00  0.00    -0.374 OA
ATOM     39  C   UNL     1     138.197 117.705  57.068  0.00  0.00    +0.194 C 
ENDBRANCH  32  38
BRANCH  33  40
ATOM     40  O   UNL     1     136.069 119.511  55.268  0.00  0.00    -0.375 OA
ATOM     41  C   UNL     1     134.663 119.520  55.068  0.00  0.00    +0.194 C 
ENDBRANCH  33  40
ENDBRANCH  28  30
ENDBRANCH  10  28
BRANCH  20  42
ATOM     42  O   UNL     1     130.311 120.339  67.960  0.00  0.00    -0.347 OA
BRANCH  42  44
ATOM     43  O   UNL     1     128.643 121.555  66.745  0.00  0.00    -0.347 OA
ATOM     44  C   UNL     1     129.355 121.419  67.967  0.00  0.00    +0.251 C 
ATOM     45  C   UNL     1     129.990 122.650  68.604  0.00  0.00    +0.063 C 
ATOM     46  C   UNL     1     130.348 123.730  67.612  0.00  0.00    +0.026 C 
ATOM     47  C   UNL     1     129.244 124.024  66.595  0.00  0.00    +0.085 C 
ATOM     48  C   UNL     1     128.715 122.728  65.934  0.00  0.00    +0.135 C 
ATOM     49  C   UNL     1     129.421 122.466  64.595  0.00  0.00    +0.039 C 
BRANCH  47  50
ATOM     50  N   UNL     1     128.193 124.938  67.121  0.00  0.00    -0.303 NA
ATOM     51  C   UNL     1     128.522 126.332  66.782  0.00  0.00    +0.105 C 
ATOM     52  C   UNL     1     126.827 124.653  66.678  0.00  0.00    +0.105 C 
ENDBRANCH  47  50
ENDBRANCH  42  44
ENDBRANCH  20  42
TORSDOF 9
ENDMDL
MODEL 18
REMARK VINA RESULT:      -7.6     93.676     97.688
REMARK  Name = 
REMARK  18 active torsions:
REMARK  status: ('A' for Active; 'I' for Inactive)
REMARK    1  A    between atoms: O_1  and  C_18
REMARK    2  A    between atoms: O_1  and  C_26
REMARK    3  A    between atoms: O_5  and  C_29
REMARK    4  A    between atoms: O_5  and  C_43
REMARK    5  A    between atoms: O_6  and  C_30
REMARK    6  A    between atoms: O_6  and  C_40
REMARK    7  A    between atoms: O_8  and  C_31
REMARK    8  A    between atoms: O_8  and  C_47
REMARK    9  A    between atoms: O_9  and  C_32
REMARK   10  A    between atoms: O_9  and  C_49
REMARK   11  A    between atoms: N_11  and  C_45
REMARK   12  A    between atoms: N_11  and  C_51
REMARK   13  A    between atoms: N_11  and  C_52
REMARK   14  A    between atoms: C_27  and  C_34
REMARK   15  A    between atoms: C_33  and  C_39
REMARK   16  A    between atoms: C_36  and  C_41
REMARK   17  A    between atoms: C_41  and  C_48
REMARK   18  A    between atoms: C_46  and  C_50
REMARK                            x       y       z     vdW  Elec       q    Type
REMARK                         _______ _______ _______ _____ _____    ______ ____
ROOT
ATOM      1  O   UNL     1     128.255 123.862 159.545  0.00  0.00    -0.292 OA
ATOM      2  O   UNL     1     134.601 124.200 158.165  0.00  0.00    -0.461 OA
ATOM      3  O   UNL     1     133.643 124.730 156.180  0.00  0.00    -0.251 OA
ATOM      4  C   UNL     1     128.917 125.447 154.984  0.00  0.00    +0.006 C 
ATOM      5  C   UNL     1     129.896 124.815 155.957  0.00  0.00    +0.023 C 
ATOM      6  C   UNL     1     127.539 125.456 155.602  0.00  0.00    +0.018 C 
ATOM      7  C   UNL     1     130.256 125.967 156.942  0.00  0.00    +0.027 C 
ATOM      8  C   UNL     1     128.846 124.910 153.576  0.00  0.00    +0.036 C 
ATOM      9  C   UNL     1     126.666 125.708 154.373  0.00  0.00    +0.039 C 
ATOM     10  C   UNL     1     127.354 124.847 153.283  0.00  0.00    +0.122 C 
ATOM     11  C   UNL     1     131.144 125.097 157.885  0.00  0.00    +0.040 C 
ATOM     12  C   UNL     1     129.522 123.749 157.060  0.00  0.00    -0.015 C 
ATOM     13  C   UNL     1     127.679 126.376 156.816  0.00  0.00    -0.027 C 
ATOM     14  C   UNL     1     128.886 126.602 157.416  0.00  0.00    -0.026 C 
ATOM     15  C   UNL     1     130.176 124.010 158.237  0.00  0.00    -0.004 C 
ATOM     16  C   UNL     1     132.573 125.577 158.242  0.00  0.00    +0.129 C 
ATOM     17  C   UNL     1     129.489 123.713 159.529  0.00  0.00    +0.164 C 
ATOM     18  C   UNL     1     130.174 123.292 160.847  0.00  0.00    +0.086 C 
ATOM     19  C   UNL     1     133.648 124.805 157.410  0.00  0.00    +0.308 C 
ATOM     20  C   UNL     1     131.024 122.002 160.902  0.00  0.00    +0.132 C 
ATOM     21  C   UNL     1     130.585 124.437 161.762  0.00  0.00    +0.018 C 
ATOM     22  C   UNL     1     132.444 122.023 161.507  0.00  0.00    +0.032 C 
ATOM     23  C   UNL     1     134.331 122.809 158.481  0.00  0.00    +0.176 C 
ATOM     24  C   UNL     1     133.595 121.581 160.603  0.00  0.00    +0.006 C 
ATOM     25  C   UNL     1     134.293 122.792 160.010  0.00  0.00    +0.045 C 
ENDROOT
BRANCH  23  26
ATOM     26  C   UNL     1     135.461 121.904 157.938  0.00  0.00    +0.041 C 
ATOM     27  C   UNL     1     136.733 122.669 157.585  0.00  0.00    +0.007 C 
ENDBRANCH  23  26
BRANCH  10  28
ATOM     28  O   UNL     1     127.027 125.297 151.986  0.00  0.00    -0.345 OA
BRANCH  28  30
ATOM     29  O   UNL     1     128.521 126.067 150.236  0.00  0.00    -0.343 OA
ATOM     30  C   UNL     1     127.859 124.967 150.863  0.00  0.00    +0.282 C 
ATOM     31  C   UNL     1     127.263 123.969 149.841  0.00  0.00    +0.205 C 
ATOM     32  C   UNL     1     126.307 124.711 148.888  0.00  0.00    +0.183 C 
ATOM     33  C   UNL     1     126.929 125.981 148.261  0.00  0.00    +0.178 C 
ATOM     34  C   UNL     1     127.802 126.805 149.250  0.00  0.00    +0.150 C 
ATOM     35  C   UNL     1     128.823 127.648 148.490  0.00  0.00    +0.041 C 
BRANCH  31  36
ATOM     36  O   UNL     1     128.266 123.143 149.202  0.00  0.00    -0.372 OA
ATOM     37  C   UNL     1     128.153 121.731 149.251  0.00  0.00    +0.194 C 
ENDBRANCH  31  36
BRANCH  32  38
ATOM     38  O   UNL     1     125.575 123.866 147.982  0.00  0.00    -0.374 OA
ATOM     39  C   UNL     1     124.531 123.068 148.509  0.00  0.00    +0.194 C 
ENDBRANCH  32  38
BRANCH  33  40
ATOM     40  O   UNL     1     125.952 126.782 147.561  0.00  0.00    -0.375 OA
ATOM     41  C   UNL     1     125.997 126.782 146.141  0.00  0.00    +0.194 C 
ENDBRANCH  33  40
ENDBRANCH  28  30
ENDBRANCH  10  28
BRANCH  20  42
ATOM     42  O   UNL     1     130.942 121.299 159.674  0.00  0.00    -0.347 OA
BRANCH  42  44
ATOM     43  O   UNL     1     129.738 119.620 158.463  0.00  0.00    -0.347 OA
ATOM     44  C   UNL     1     130.166 120.086 159.736  0.00  0.00    +0.251 C 
ATOM     45  C   UNL     1     129.155 120.192 160.872  0.00  0.00    +0.063 C 
ATOM     46  C   UNL     1     127.736 120.403 160.405  0.00  0.00    +0.026 C 
ATOM     47  C   UNL     1     127.322 119.484 159.253  0.00  0.00    +0.085 C 
ATOM     48  C   UNL     1     128.360 119.502 158.106  0.00  0.00    +0.135 C 
ATOM     49  C   UNL     1     127.955 120.503 157.013  0.00  0.00    +0.039 C 
BRANCH  47  50
ATOM     50  N   UNL     1     126.907 118.129 159.709  0.00  0.00    -0.303 NA
ATOM     51  C   UNL     1     125.473 118.126 160.041  0.00  0.00    +0.105 C 
ATOM     52  C   UNL     1     127.178 117.037 158.772  0.00  0.00    +0.105 C 
ENDBRANCH  47  50
ENDBRANCH  42  44
ENDBRANCH  20  42
TORSDOF 9
ENDMDL
MODEL 19
REMARK VINA RESULT:      -7.5     54.588     58.709
REMARK  Name = 
REMARK  18 active torsions:
REMARK  status: ('A' for Active; 'I' for Inactive)
REMARK    1  A    between atoms: O_1  and  C_18
REMARK    2  A    between atoms: O_1  and  C_26
REMARK    3  A    between atoms: O_5  and  C_29
REMARK    4  A    between atoms: O_5  and  C_43
REMARK    5  A    between atoms: O_6  and  C_30
REMARK    6  A    between atoms: O_6  and  C_40
REMARK    7  A    between atoms: O_8  and  C_31
REMARK    8  A    between atoms: O_8  and  C_47
REMARK    9  A    between atoms: O_9  and  C_32
REMARK   10  A    between atoms: O_9  and  C_49
REMARK   11  A    between atoms: N_11  and  C_45
REMARK   12  A    between atoms: N_11  and  C_51
REMARK   13  A    between atoms: N_11  and  C_52
REMARK   14  A    between atoms: C_27  and  C_34
REMARK   15  A    between atoms: C_33  and  C_39
REMARK   16  A    between atoms: C_36  and  C_41
REMARK   17  A    between atoms: C_41  and  C_48
REMARK   18  A    between atoms: C_46  and  C_50
REMARK                            x       y       z     vdW  Elec       q    Type
REMARK                         _______ _______ _______ _____ _____    ______ ____
ROOT
ATOM      1  O   UNL     1      92.937 111.299 109.651  0.00  0.00    -0.292 OA
ATOM      2  O   UNL     1      86.754 110.992 107.657  0.00  0.00    -0.461 OA
ATOM      3  O   UNL     1      87.860 111.469 105.738  0.00  0.00    -0.251 OA
ATOM      4  C   UNL     1      92.689 111.793 104.809  0.00  0.00    +0.006 C 
ATOM      5  C   UNL     1      91.595 111.845 105.860  0.00  0.00    +0.023 C 
ATOM      6  C   UNL     1      94.028 111.648 105.493  0.00  0.00    +0.018 C 
ATOM      7  C   UNL     1      91.340 110.351 106.222  0.00  0.00    +0.027 C 
ATOM      8  C   UNL     1      92.755 112.891 103.777  0.00  0.00    +0.036 C 
ATOM      9  C   UNL     1      94.981 112.037 104.364  0.00  0.00    +0.039 C 
ATOM     10  C   UNL     1      94.239 113.216 103.683  0.00  0.00    +0.122 C 
ATOM     11  C   UNL     1      90.306 110.637 107.355  0.00  0.00    +0.040 C 
ATOM     12  C   UNL     1      91.780 112.357 107.341  0.00  0.00    -0.015 C 
ATOM     13  C   UNL     1      93.950 110.284 106.181  0.00  0.00    -0.027 C 
ATOM     14  C   UNL     1      92.755 109.707 106.509  0.00  0.00    -0.026 C 
ATOM     15  C   UNL     1      91.111 111.551 108.227  0.00  0.00    -0.004 C 
ATOM     16  C   UNL     1      88.935 109.917 107.336  0.00  0.00    +0.129 C 
ATOM     17  C   UNL     1      91.696 111.322 109.582  0.00  0.00    +0.164 C 
ATOM     18  C   UNL     1      90.904 111.063 110.881  0.00  0.00    +0.086 C 
ATOM     19  C   UNL     1      87.809 110.868 106.812  0.00  0.00    +0.308 C 
ATOM     20  C   UNL     1      89.895 112.115 111.398  0.00  0.00    +0.132 C 
ATOM     21  C   UNL     1      90.600 109.601 111.179  0.00  0.00    +0.018 C 
ATOM     22  C   UNL     1      88.463 111.699 111.798  0.00  0.00    +0.032 C 
ATOM     23  C   UNL     1      86.830 112.127 108.560  0.00  0.00    +0.176 C 
ATOM     24  C   UNL     1      87.308 112.377 111.062  0.00  0.00    +0.006 C 
ATOM     25  C   UNL     1      86.797 111.483 109.947  0.00  0.00    +0.045 C 
ENDROOT
BRANCH  23  26
ATOM     26  C   UNL     1      85.621 113.066 108.348  0.00  0.00    +0.041 C 
ATOM     27  C   UNL     1      84.305 112.323 108.140  0.00  0.00    +0.007 C 
ENDBRANCH  23  26
BRANCH  10  28
ATOM     28  O   UNL     1      94.679 113.406 102.356  0.00  0.00    -0.345 OA
BRANCH  28  30
ATOM     29  O   UNL     1      95.830 111.560 101.280  0.00  0.00    -0.343 OA
ATOM     30  C   UNL     1      94.632 112.329 101.406  0.00  0.00    +0.282 C 
ATOM     31  C   UNL     1      93.986 112.654 100.037  0.00  0.00    +0.205 C 
ATOM     32  C   UNL     1      95.008 113.375  99.139  0.00  0.00    +0.183 C 
ATOM     33  C   UNL     1      96.370 112.647  99.051  0.00  0.00    +0.178 C 
ATOM     34  C   UNL     1      96.846 112.043 100.403  0.00  0.00    +0.150 C 
ATOM     35  C   UNL     1      97.815 110.888 100.164  0.00  0.00    +0.041 C 
BRANCH  31  36
ATOM     36  O   UNL     1      93.322 111.515  99.439  0.00  0.00    -0.372 OA
ATOM     37  C   UNL     1      91.956 111.263  99.728  0.00  0.00    +0.194 C 
ENDBRANCH  31  36
BRANCH  32  38
ATOM     38  O   UNL     1      94.483 113.861  97.890  0.00  0.00    -0.374 OA
ATOM     39  C   UNL     1      93.395 114.765  97.930  0.00  0.00    +0.194 C 
ENDBRANCH  32  38
BRANCH  33  40
ATOM     40  O   UNL     1      97.380 113.449  98.400  0.00  0.00    -0.375 OA
ATOM     41  C   UNL     1      97.836 113.023  97.124  0.00  0.00    +0.194 C 
ENDBRANCH  33  40
ENDBRANCH  28  30
ENDBRANCH  10  28
BRANCH  20  42
ATOM     42  O   UNL     1      89.943 113.284 110.600  0.00  0.00    -0.347 OA
BRANCH  42  44
ATOM     43  O   UNL     1      91.981 114.381 111.214  0.00  0.00    -0.347 OA
ATOM     44  C   UNL     1      90.561 114.417 111.244  0.00  0.00    +0.251 C 
ATOM     45  C   UNL     1      89.847 114.699 112.561  0.00  0.00    +0.063 C 
ATOM     46  C   UNL     1      90.640 114.295 113.780  0.00  0.00    +0.026 C 
ATOM     47  C   UNL     1      92.108 114.726 113.733  0.00  0.00    +0.085 C 
ATOM     48  C   UNL     1      92.779 114.325 112.397  0.00  0.00    +0.135 C 
ATOM     49  C   UNL     1      93.522 112.988 112.535  0.00  0.00    +0.039 C 
BRANCH  47  50
ATOM     50  N   UNL     1      92.313 116.142 114.143  0.00  0.00    -0.303 NA
ATOM     51  C   UNL     1      91.838 116.342 115.522  0.00  0.00    +0.105 C 
ATOM     52  C   UNL     1      93.687 116.638 114.040  0.00  0.00    +0.105 C 
ENDBRANCH  47  50
ENDBRANCH  42  44
ENDBRANCH  20  42
TORSDOF 9
ENDMDL
MODEL 20
REMARK VINA RESULT:      -7.5     57.853     63.879
REMARK  Name = 
REMARK  18 active torsions:
REMARK  status: ('A' for Active; 'I' for Inactive)
REMARK    1  A    between atoms: O_1  and  C_18
REMARK    2  A    between atoms: O_1  and  C_26
REMARK    3  A    between atoms: O_5  and  C_29
REMARK    4  A    between atoms: O_5  and  C_43
REMARK    5  A    between atoms: O_6  and  C_30
REMARK    6  A    between atoms: O_6  and  C_40
REMARK    7  A    between atoms: O_8  and  C_31
REMARK    8  A    between atoms: O_8  and  C_47
REMARK    9  A    between atoms: O_9  and  C_32
REMARK   10  A    between atoms: O_9  and  C_49
REMARK   11  A    between atoms: N_11  and  C_45
REMARK   12  A    between atoms: N_11  and  C_51
REMARK   13  A    between atoms: N_11  and  C_52
REMARK   14  A    between atoms: C_27  and  C_34
REMARK   15  A    between atoms: C_33  and  C_39
REMARK   16  A    between atoms: C_36  and  C_41
REMARK   17  A    between atoms: C_41  and  C_48
REMARK   18  A    between atoms: C_46  and  C_50
REMARK                            x       y       z     vdW  Elec       q    Type
REMARK                         _______ _______ _______ _____ _____    ______ ____
ROOT
ATOM      1  O   UNL     1     138.435 145.948 109.889  0.00  0.00    -0.292 OA
ATOM      2  O   UNL     1     143.374 149.652 107.844  0.00  0.00    -0.461 OA
ATOM      3  O   UNL     1     142.688 148.655 105.929  0.00  0.00    -0.251 OA
ATOM      4  C   UNL     1     138.839 145.710 105.039  0.00  0.00    +0.006 C 
ATOM      5  C   UNL     1     139.794 146.267 106.079  0.00  0.00    +0.023 C 
ATOM      6  C   UNL     1     137.656 145.082 105.737  0.00  0.00    +0.018 C 
ATOM      7  C   UNL     1     139.182 147.648 106.460  0.00  0.00    +0.027 C 
ATOM      8  C   UNL     1     139.378 144.767 103.991  0.00  0.00    +0.036 C 
ATOM      9  C   UNL     1     137.062 144.237 104.611  0.00  0.00    +0.039 C 
ATOM     10  C   UNL     1     138.323 143.674 103.906  0.00  0.00    +0.122 C 
ATOM     11  C   UNL     1     140.219 147.976 107.580  0.00  0.00    +0.040 C 
ATOM     12  C   UNL     1     139.948 145.727 107.554  0.00  0.00    -0.015 C 
ATOM     13  C   UNL     1     136.974 146.254 106.444  0.00  0.00    -0.027 C 
ATOM     14  C   UNL     1     137.652 147.395 106.770  0.00  0.00    -0.026 C 
ATOM     15  C   UNL     1     140.070 146.763 108.445  0.00  0.00    -0.004 C 
ATOM     16  C   UNL     1     140.959 149.337 107.559  0.00  0.00    +0.129 C 
ATOM     17  C   UNL     1     139.478 146.618 109.809  0.00  0.00    +0.164 C 
ATOM     18  C   UNL     1     140.014 147.265 111.105  0.00  0.00    +0.086 C 
ATOM     19  C   UNL     1     142.414 149.175 107.011  0.00  0.00    +0.308 C 
ATOM     20  C   UNL     1     141.444 146.946 111.597  0.00  0.00    +0.132 C 
ATOM     21  C   UNL     1     139.459 148.646 111.421  0.00  0.00    +0.018 C 
ATOM     22  C   UNL     1     142.410 148.085 111.989  0.00  0.00    +0.032 C 
ATOM     23  C   UNL     1     143.955 148.659 108.731  0.00  0.00    +0.176 C 
ATOM     24  C   UNL     1     143.736 148.168 111.233  0.00  0.00    +0.006 C 
ATOM     25  C   UNL     1     143.647 149.204 110.127  0.00  0.00    +0.045 C 
ENDROOT
BRANCH  23  26
ATOM     26  C   UNL     1     145.478 148.551 108.494  0.00  0.00    +0.041 C 
ATOM     27  C   UNL     1     146.008 149.566 107.484  0.00  0.00    +0.007 C 
ENDBRANCH  23  26
BRANCH  10  28
ATOM     28  O   UNL     1     138.041 143.281 102.580  0.00  0.00    -0.345 OA
BRANCH  28  30
ATOM     29  O   UNL     1     136.019 143.980 101.436  0.00  0.00    -0.343 OA
ATOM     30  C   UNL     1     137.414 144.191 101.662  0.00  0.00    +0.282 C 
ATOM     31  C   UNL     1     138.190 144.489 100.358  0.00  0.00    +0.205 C 
ATOM     32  C   UNL     1     137.966 143.348  99.348  0.00  0.00    +0.183 C 
ATOM     33  C   UNL     1     136.475 142.994  99.142  0.00  0.00    +0.178 C 
ATOM     34  C   UNL     1     135.638 143.019 100.454  0.00  0.00    +0.150 C 
ATOM     35  C   UNL     1     134.162 143.255 100.145  0.00  0.00    +0.041 C 
BRANCH  31  36
ATOM     36  O   UNL     1     137.959 145.825  99.852  0.00  0.00    -0.372 OA
ATOM     37  C   UNL     1     139.056 146.698  99.636  0.00  0.00    +0.194 C 
ENDBRANCH  31  36
BRANCH  32  38
ATOM     38  O   UNL     1     138.754 143.436  98.146  0.00  0.00    -0.374 OA
ATOM     39  C   UNL     1     139.882 142.590  98.025  0.00  0.00    +0.194 C 
ENDBRANCH  32  38
BRANCH  33  40
ATOM     40  O   UNL     1     136.298 141.781  98.378  0.00  0.00    -0.375 OA
ATOM     41  C   UNL     1     135.777 141.902  97.062  0.00  0.00    +0.194 C 
ENDBRANCH  33  40
ENDBRANCH  28  30
ENDBRANCH  10  28
BRANCH  20  42
ATOM     42  O   UNL     1     142.042 145.954 110.782  0.00  0.00    -0.347 OA
BRANCH  42  44
ATOM     43  O   UNL     1     140.958 143.917 111.426  0.00  0.00    -0.347 OA
ATOM     44  C   UNL     1     142.167 144.664 111.414  0.00  0.00    +0.251 C 
ATOM     45  C   UNL     1     142.967 144.810 112.703  0.00  0.00    +0.063 C 
ATOM     46  C   UNL     1     142.129 144.709 113.954  0.00  0.00    +0.026 C 
ATOM     47  C   UNL     1     141.134 143.546 113.937  0.00  0.00    +0.085 C 
ATOM     48  C   UNL     1     140.304 143.521 112.632  0.00  0.00    +0.135 C 
ATOM     49  C   UNL     1     138.957 144.235 112.824  0.00  0.00    +0.039 C 
BRANCH  47  50
ATOM     50  N   UNL     1     141.751 142.246 114.318  0.00  0.00    -0.303 NA
ATOM     51  C   UNL     1     142.089 142.247 115.751  0.00  0.00    +0.105 C 
ATOM     52  C   UNL     1     140.951 141.055 114.022  0.00  0.00    +0.105 C 
ENDBRANCH  47  50
ENDBRANCH  42  44
ENDBRANCH  20  42
TORSDOF 9
ENDMDL
