MODEL 1
REMARK VINA RESULT:      -8.3      0.000      0.000
REMARK  Name = 
REMARK  17 active torsions:
REMARK  status: ('A' for Active; 'I' for Inactive)
REMARK    1  A    between atoms: O_1  and  C_18
REMARK    2  A    between atoms: O_1  and  C_26
REMARK    3  A    between atoms: O_5  and  C_30
REMARK    4  A    between atoms: O_5  and  C_40
REMARK    5  A    between atoms: O_6  and  C_29
REMARK    6  A    between atoms: O_6  and  C_43
REMARK    7  A    between atoms: O_8  and  C_31
REMARK    8  A    between atoms: O_9  and  C_34
REMARK    9  A    between atoms: O_9  and  C_48
REMARK   10  A    between atoms: N_11  and  C_45
REMARK   11  A    between atoms: N_11  and  C_50
REMARK   12  A    between atoms: N_11  and  C_51
REMARK   13  A    between atoms: C_27  and  C_33
REMARK   14  A    between atoms: C_32  and  C_39
REMARK   15  A    between atoms: C_36  and  C_41
REMARK   16  A    between atoms: C_41  and  C_47
REMARK   17  A    between atoms: C_46  and  C_49
REMARK                            x       y       z     vdW  Elec       q    Type
REMARK                         _______ _______ _______ _____ _____    ______ ____
ROOT
ATOM      1  O   UNL     1     125.841  99.886  53.002  0.00  0.00    -0.292 OA
ATOM      2  O   UNL     1     125.319  94.401  56.394  0.00  0.00    -0.461 OA
ATOM      3  O   UNL     1     124.984  96.012  57.940  0.00  0.00    -0.251 OA
ATOM      4  C   UNL     1     124.318 100.873  57.542  0.00  0.00    +0.006 C 
ATOM      5  C   UNL     1     124.910  99.608  56.949  0.00  0.00    +0.023 C 
ATOM      6  C   UNL     1     124.358 101.972  56.504  0.00  0.00    +0.018 C 
ATOM      7  C   UNL     1     123.733  98.991  56.135  0.00  0.00    +0.027 C 
ATOM      8  C   UNL     1     124.850 101.385  58.860  0.00  0.00    +0.036 C 
ATOM      9  C   UNL     1     124.130 103.207  57.376  0.00  0.00    +0.039 C 
ATOM     10  C   UNL     1     124.952 102.888  58.649  0.00  0.00    +0.122 C 
ATOM     11  C   UNL     1     124.548  97.801  55.541  0.00  0.00    +0.040 C 
ATOM     12  C   UNL     1     125.972  99.551  55.781  0.00  0.00    -0.015 C 
ATOM     13  C   UNL     1     123.433 101.483  55.397  0.00  0.00    -0.027 C 
ATOM     14  C   UNL     1     123.156 100.154  55.216  0.00  0.00    -0.026 C 
ATOM     15  C   UNL     1     125.664  98.551  54.895  0.00  0.00    -0.004 C 
ATOM     16  C   UNL     1     124.011  96.350  55.692  0.00  0.00    +0.129 C 
ATOM     17  C   UNL     1     125.978  98.737  53.440  0.00  0.00    +0.164 C 
ATOM     18  C   UNL     1     126.377  97.627  52.456  0.00  0.00    +0.086 C 
ATOM     19  C   UNL     1     124.795  95.586  56.797  0.00  0.00    +0.308 C 
ATOM     20  C   UNL     1     127.620  96.766  52.737  0.00  0.00    +0.132 C 
ATOM     21  C   UNL     1     125.208  96.970  51.729  0.00  0.00    +0.018 C 
ATOM     22  C   UNL     1     127.533  95.220  52.634  0.00  0.00    +0.032 C 
ATOM     23  C   UNL     1     126.732  94.469  56.077  0.00  0.00    +0.176 C 
ATOM     24  C   UNL     1     127.985  94.406  53.851  0.00  0.00    +0.006 C 
ATOM     25  C   UNL     1     126.777  93.939  54.643  0.00  0.00    +0.045 C 
ENDROOT
BRANCH  23  26
ATOM     26  C   UNL     1     127.564  93.580  57.029  0.00  0.00    +0.041 C 
ATOM     27  C   UNL     1     126.726  92.545  57.777  0.00  0.00    +0.007 C 
ENDBRANCH  23  26
BRANCH  10  28
ATOM     28  O   UNL     1     124.492 103.639  59.750  0.00  0.00    -0.345 OA
BRANCH  28  30
ATOM     29  O   UNL     1     124.760 105.990  59.225  0.00  0.00    -0.343 OA
ATOM     30  C   UNL     1     123.873 104.917  59.544  0.00  0.00    +0.282 C 
ATOM     31  C   UNL     1     122.805 105.307  60.583  0.00  0.00    +0.205 C 
ATOM     32  C   UNL     1     123.438 105.916  61.838  0.00  0.00    +0.179 C 
ATOM     33  C   UNL     1     125.410 106.660  60.302  0.00  0.00    +0.150 C 
ATOM     34  C   UNL     1     124.530 106.965  61.542  0.00  0.00    +0.177 C 
ATOM     35  C   UNL     1     125.996 107.952  59.737  0.00  0.00    +0.041 C 
BRANCH  31  36
ATOM     36  O   UNL     1     121.721 106.126  60.064  0.00  0.00    -0.372 OA
ATOM     37  C   UNL     1     121.339 105.977  58.705  0.00  0.00    +0.194 C 
ENDBRANCH  31  36
BRANCH  32  38
ATOM     38  O   UNL     1     122.407 106.473  62.678  0.00  0.00    -0.386 OA
ATOM     39  H   UNL     1     121.588 106.496  62.143  0.00  0.00    +0.210 HD
ENDBRANCH  32  38
BRANCH  34  40
ATOM     40  O   UNL     1     125.296 107.298  62.721  0.00  0.00    -0.375 OA
ATOM     41  C   UNL     1     125.965 106.241  63.392  0.00  0.00    +0.194 C 
ENDBRANCH  34  40
ENDBRANCH  28  30
ENDBRANCH  10  28
BRANCH  20  42
ATOM     42  O   UNL     1     128.324  97.222  53.871  0.00  0.00    -0.347 OA
BRANCH  42  44
ATOM     43  O   UNL     1     129.930  97.818  52.196  0.00  0.00    -0.347 OA
ATOM     44  C   UNL     1     129.574  97.876  53.572  0.00  0.00    +0.251 C 
ATOM     45  C   UNL     1     130.613  97.507  54.626  0.00  0.00    +0.063 C 
ATOM     46  C   UNL     1     131.655  96.531  54.138  0.00  0.00    +0.026 C 
ATOM     47  C   UNL     1     132.229  96.880  52.763  0.00  0.00    +0.085 C 
ATOM     48  C   UNL     1     131.113  97.168  51.729  0.00  0.00    +0.135 C 
ATOM     49  C   UNL     1     130.799  95.916  50.897  0.00  0.00    +0.039 C 
BRANCH  47  50
ATOM     50  N   UNL     1     133.310  97.902  52.828  0.00  0.00    -0.303 NA
ATOM     51  C   UNL     1     134.437  97.394  53.628  0.00  0.00    +0.105 C 
ATOM     52  C   UNL     1     133.821  98.362  51.536  0.00  0.00    +0.105 C 
ENDBRANCH  47  50
ENDBRANCH  42  44
ENDBRANCH  20  42
TORSDOF 9
ENDMDL
MODEL 2
REMARK VINA RESULT:      -8.0     69.077     74.900
REMARK  Name = 
REMARK  17 active torsions:
REMARK  status: ('A' for Active; 'I' for Inactive)
REMARK    1  A    between atoms: O_1  and  C_18
REMARK    2  A    between atoms: O_1  and  C_26
REMARK    3  A    between atoms: O_5  and  C_30
REMARK    4  A    between atoms: O_5  and  C_40
REMARK    5  A    between atoms: O_6  and  C_29
REMARK    6  A    between atoms: O_6  and  C_43
REMARK    7  A    between atoms: O_8  and  C_31
REMARK    8  A    between atoms: O_9  and  C_34
REMARK    9  A    between atoms: O_9  and  C_48
REMARK   10  A    between atoms: N_11  and  C_45
REMARK   11  A    between atoms: N_11  and  C_50
REMARK   12  A    between atoms: N_11  and  C_51
REMARK   13  A    between atoms: C_27  and  C_33
REMARK   14  A    between atoms: C_32  and  C_39
REMARK   15  A    between atoms: C_36  and  C_41
REMARK   16  A    between atoms: C_41  and  C_47
REMARK   17  A    between atoms: C_46  and  C_49
REMARK                            x       y       z     vdW  Elec       q    Type
REMARK                         _______ _______ _______ _____ _____    ______ ____
ROOT
ATOM      1  O   UNL     1     113.284 120.455 128.326  0.00  0.00    -0.292 OA
ATOM      2  O   UNL     1     112.926 119.845 121.894  0.00  0.00    -0.461 OA
ATOM      3  O   UNL     1     113.337 122.044 122.193  0.00  0.00    -0.251 OA
ATOM      4  C   UNL     1     114.590 124.649 126.178  0.00  0.00    +0.006 C 
ATOM      5  C   UNL     1     113.898 123.421 125.615  0.00  0.00    +0.023 C 
ATOM      6  C   UNL     1     114.751 124.485 127.673  0.00  0.00    +0.018 C 
ATOM      7  C   UNL     1     115.050 122.383 125.457  0.00  0.00    +0.027 C 
ATOM      8  C   UNL     1     114.030 126.016 125.864  0.00  0.00    +0.036 C 
ATOM      9  C   UNL     1     115.060 125.922 128.094  0.00  0.00    +0.039 C 
ATOM     10  C   UNL     1     114.119 126.756 127.191  0.00  0.00    +0.122 C 
ATOM     11  C   UNL     1     114.145 121.203 124.984  0.00  0.00    +0.040 C 
ATOM     12  C   UNL     1     112.921 122.471 126.414  0.00  0.00    -0.015 C 
ATOM     13  C   UNL     1     115.688 123.294 127.825  0.00  0.00    -0.027 C 
ATOM     14  C   UNL     1     115.820 122.343 126.848  0.00  0.00    -0.026 C 
ATOM     15  C   UNL     1     113.171 121.157 126.114  0.00  0.00    -0.004 C 
ATOM     16  C   UNL     1     114.498 120.441 123.676  0.00  0.00    +0.129 C 
ATOM     17  C   UNL     1     112.984 120.113 127.174  0.00  0.00    +0.164 C 
ATOM     18  C   UNL     1     112.529 118.665 126.943  0.00  0.00    +0.086 C 
ATOM     19  C   UNL     1     113.555 120.873 122.517  0.00  0.00    +0.308 C 
ATOM     20  C   UNL     1     111.177 118.388 126.262  0.00  0.00    +0.132 C 
ATOM     21  C   UNL     1     113.661 117.672 126.702  0.00  0.00    +0.018 C 
ATOM     22  C   UNL     1     111.091 117.372 125.092  0.00  0.00    +0.032 C 
ATOM     23  C   UNL     1     111.556 119.653 122.329  0.00  0.00    +0.176 C 
ATOM     24  C   UNL     1     110.463 117.858 123.782  0.00  0.00    +0.006 C 
ATOM     25  C   UNL     1     111.550 118.191 122.776  0.00  0.00    +0.045 C 
ENDROOT
BRANCH  23  26
ATOM     26  C   UNL     1     110.562 119.888 121.169  0.00  0.00    +0.041 C 
ATOM     27  C   UNL     1     111.239 120.000 119.805  0.00  0.00    +0.007 C 
ENDBRANCH  23  26
BRANCH  10  28
ATOM     28  O   UNL     1     114.585 128.081 127.061  0.00  0.00    -0.345 OA
BRANCH  28  30
ATOM     29  O   UNL     1     115.552 129.512 125.361  0.00  0.00    -0.343 OA
ATOM     30  C   UNL     1     114.411 128.789 125.825  0.00  0.00    +0.282 C 
ATOM     31  C   UNL     1     113.100 129.589 125.703  0.00  0.00    +0.205 C 
ATOM     32  C   UNL     1     113.216 130.962 126.372  0.00  0.00    +0.179 C 
ATOM     33  C   UNL     1     115.775 130.816 125.890  0.00  0.00    +0.150 C 
ATOM     34  C   UNL     1     114.519 131.716 126.033  0.00  0.00    +0.177 C 
ATOM     35  C   UNL     1     116.811 131.491 124.994  0.00  0.00    +0.041 C 
BRANCH  31  36
ATOM     36  O   UNL     1     112.566 129.680 124.355  0.00  0.00    -0.372 OA
ATOM     37  C   UNL     1     112.813 128.617 123.446  0.00  0.00    +0.194 C 
ENDBRANCH  31  36
BRANCH  32  38
ATOM     38  O   UNL     1     112.062 131.760 126.039  0.00  0.00    -0.386 OA
ATOM     39  H   UNL     1     111.390 131.587 126.729  0.00  0.00    +0.210 HD
ENDBRANCH  32  38
BRANCH  34  40
ATOM     40  O   UNL     1     114.726 132.857 126.895  0.00  0.00    -0.375 OA
ATOM     41  C   UNL     1     114.600 134.149 126.320  0.00  0.00    +0.194 C 
ENDBRANCH  34  40
ENDBRANCH  28  30
ENDBRANCH  10  28
BRANCH  20  42
ATOM     42  O   UNL     1     110.454 119.578 126.038  0.00  0.00    -0.347 OA
BRANCH  42  44
ATOM     43  O   UNL     1     108.608 118.560 127.177  0.00  0.00    -0.347 OA
ATOM     44  C   UNL     1     109.323 119.761 126.915  0.00  0.00    +0.251 C 
ATOM     45  C   UNL     1     108.553 121.013 126.508  0.00  0.00    +0.063 C 
ATOM     46  C   UNL     1     107.247 120.723 125.809  0.00  0.00    +0.026 C 
ATOM     47  C   UNL     1     106.407 119.647 126.499  0.00  0.00    +0.085 C 
ATOM     48  C   UNL     1     107.239 118.379 126.812  0.00  0.00    +0.135 C 
ATOM     49  C   UNL     1     107.064 117.322 125.712  0.00  0.00    +0.039 C 
BRANCH  47  50
ATOM     50  N   UNL     1     105.606 120.175 127.637  0.00  0.00    -0.303 NA
ATOM     51  C   UNL     1     104.804 121.328 127.198  0.00  0.00    +0.105 C 
ATOM     52  C   UNL     1     104.722 119.208 128.289  0.00  0.00    +0.105 C 
ENDBRANCH  47  50
ENDBRANCH  42  44
ENDBRANCH  20  42
TORSDOF 9
ENDMDL
MODEL 3
REMARK VINA RESULT:      -7.9     30.790     34.610
REMARK  Name = 
REMARK  17 active torsions:
REMARK  status: ('A' for Active; 'I' for Inactive)
REMARK    1  A    between atoms: O_1  and  C_18
REMARK    2  A    between atoms: O_1  and  C_26
REMARK    3  A    between atoms: O_5  and  C_30
REMARK    4  A    between atoms: O_5  and  C_40
REMARK    5  A    between atoms: O_6  and  C_29
REMARK    6  A    between atoms: O_6  and  C_43
REMARK    7  A    between atoms: O_8  and  C_31
REMARK    8  A    between atoms: O_9  and  C_34
REMARK    9  A    between atoms: O_9  and  C_48
REMARK   10  A    between atoms: N_11  and  C_45
REMARK   11  A    between atoms: N_11  and  C_50
REMARK   12  A    between atoms: N_11  and  C_51
REMARK   13  A    between atoms: C_27  and  C_33
REMARK   14  A    between atoms: C_32  and  C_39
REMARK   15  A    between atoms: C_36  and  C_41
REMARK   16  A    between atoms: C_41  and  C_47
REMARK   17  A    between atoms: C_46  and  C_49
REMARK                            x       y       z     vdW  Elec       q    Type
REMARK                         _______ _______ _______ _____ _____    ______ ____
ROOT
ATOM      1  O   UNL     1     108.619 107.936  24.861  0.00  0.00    -0.292 OA
ATOM      2  O   UNL     1     107.407 107.214  31.176  0.00  0.00    -0.461 OA
ATOM      3  O   UNL     1     109.660 107.311  31.079  0.00  0.00    -0.251 OA
ATOM      4  C   UNL     1     112.754 108.443  27.422  0.00  0.00    +0.006 C 
ATOM      5  C   UNL     1     111.395 107.903  27.830  0.00  0.00    +0.023 C 
ATOM      6  C   UNL     1     112.744 108.733  25.937  0.00  0.00    +0.018 C 
ATOM      7  C   UNL     1     110.523 109.183  28.005  0.00  0.00    +0.027 C 
ATOM      8  C   UNL     1     113.994 107.664  27.790  0.00  0.00    +0.036 C 
ATOM      9  C   UNL     1     114.242 108.853  25.653  0.00  0.00    +0.039 C 
ATOM     10  C   UNL     1     114.852 107.736  26.535  0.00  0.00    +0.122 C 
ATOM     11  C   UNL     1     109.189 108.434  28.310  0.00  0.00    +0.040 C 
ATOM     12  C   UNL     1     110.388 107.139  26.883  0.00  0.00    -0.015 C 
ATOM     13  C   UNL     1     111.718 109.847  25.774  0.00  0.00    -0.027 C 
ATOM     14  C   UNL     1     110.715 110.049  26.684  0.00  0.00    -0.026 C 
ATOM     15  C   UNL     1     109.102 107.561  27.103  0.00  0.00    -0.004 C 
ATOM     16  C   UNL     1     108.374 108.802  29.582  0.00  0.00    +0.129 C 
ATOM     17  C   UNL     1     108.139 107.609  25.955  0.00  0.00    +0.164 C 
ATOM     18  C   UNL     1     106.626 107.359  26.037  0.00  0.00    +0.086 C 
ATOM     19  C   UNL     1     108.564 107.724  30.687  0.00  0.00    +0.308 C 
ATOM     20  C   UNL     1     106.100 106.019  26.580  0.00  0.00    +0.132 C 
ATOM     21  C   UNL     1     105.788 108.607  26.296  0.00  0.00    +0.018 C 
ATOM     22  C   UNL     1     104.984 106.002  27.658  0.00  0.00    +0.032 C 
ATOM     23  C   UNL     1     107.059 105.922  30.616  0.00  0.00    +0.176 C 
ATOM     24  C   UNL     1     105.260 105.217  28.944  0.00  0.00    +0.006 C 
ATOM     25  C   UNL     1     105.656 106.167  30.061  0.00  0.00    +0.045 C 
ENDROOT
BRANCH  23  26
ATOM     26  C   UNL     1     107.048 104.824  31.703  0.00  0.00    +0.041 C 
ATOM     27  C   UNL     1     107.675 103.510  31.242  0.00  0.00    +0.007 C 
ENDBRANCH  23  26
BRANCH  10  28
ATOM     28  O   UNL     1     116.213 107.988  26.802  0.00  0.00    -0.345 OA
BRANCH  28  30
ATOM     29  O   UNL     1     117.971 109.356  25.847  0.00  0.00    -0.343 OA
ATOM     30  C   UNL     1     116.758 109.300  26.597  0.00  0.00    +0.282 C 
ATOM     31  C   UNL     1     116.776 110.208  27.841  0.00  0.00    +0.205 C 
ATOM     32  C   UNL     1     118.001 109.934  28.718  0.00  0.00    +0.179 C 
ATOM     33  C   UNL     1     119.195 109.134  26.542  0.00  0.00    +0.150 C 
ATOM     34  C   UNL     1     119.322 109.815  27.930  0.00  0.00    +0.177 C 
ATOM     35  C   UNL     1     120.323 109.592  25.622  0.00  0.00    +0.041 C 
BRANCH  31  36
ATOM     36  O   UNL     1     116.608 111.625  27.563  0.00  0.00    -0.372 OA
ATOM     37  C   UNL     1     115.725 112.020  26.524  0.00  0.00    +0.194 C 
ENDBRANCH  31  36
BRANCH  32  38
ATOM     38  O   UNL     1     118.102 110.948  29.738  0.00  0.00    -0.386 OA
ATOM     39  H   UNL     1     118.232 111.801  29.277  0.00  0.00    +0.210 HD
ENDBRANCH  32  38
BRANCH  34  40
ATOM     40  O   UNL     1     120.390 109.275  28.739  0.00  0.00    -0.375 OA
ATOM     41  C   UNL     1     120.438 107.867  28.913  0.00  0.00    +0.194 C 
ENDBRANCH  34  40
ENDBRANCH  28  30
ENDBRANCH  10  28
BRANCH  20  42
ATOM     42  O   UNL     1     107.150 105.112  26.832  0.00  0.00    -0.347 OA
BRANCH  42  44
ATOM     43  O   UNL     1     108.373 103.194  26.079  0.00  0.00    -0.347 OA
ATOM     44  C   UNL     1     107.227 104.016  25.897  0.00  0.00    +0.251 C 
ATOM     45  C   UNL     1     106.880 104.510  24.497  0.00  0.00    +0.063 C 
ATOM     46  C   UNL     1     108.073 104.635  23.582  0.00  0.00    +0.026 C 
ATOM     47  C   UNL     1     109.009 103.426  23.624  0.00  0.00    +0.085 C 
ATOM     48  C   UNL     1     109.376 103.032  25.075  0.00  0.00    +0.135 C 
ATOM     49  C   UNL     1     110.720 103.651  25.489  0.00  0.00    +0.039 C 
BRANCH  47  50
ATOM     50  N   UNL     1     108.548 102.303  22.761  0.00  0.00    -0.303 NA
ATOM     51  C   UNL     1     109.257 102.333  21.472  0.00  0.00    +0.105 C 
ATOM     52  C   UNL     1     108.682 100.966  23.341  0.00  0.00    +0.105 C 
ENDBRANCH  47  50
ENDBRANCH  42  44
ENDBRANCH  20  42
TORSDOF 9
ENDMDL
MODEL 4
REMARK VINA RESULT:      -7.8     34.738     38.450
REMARK  Name = 
REMARK  17 active torsions:
REMARK  status: ('A' for Active; 'I' for Inactive)
REMARK    1  A    between atoms: O_1  and  C_18
REMARK    2  A    between atoms: O_1  and  C_26
REMARK    3  A    between atoms: O_5  and  C_30
REMARK    4  A    between atoms: O_5  and  C_40
REMARK    5  A    between atoms: O_6  and  C_29
REMARK    6  A    between atoms: O_6  and  C_43
REMARK    7  A    between atoms: O_8  and  C_31
REMARK    8  A    between atoms: O_9  and  C_34
REMARK    9  A    between atoms: O_9  and  C_48
REMARK   10  A    between atoms: N_11  and  C_45
REMARK   11  A    between atoms: N_11  and  C_50
REMARK   12  A    between atoms: N_11  and  C_51
REMARK   13  A    between atoms: C_27  and  C_33
REMARK   14  A    between atoms: C_32  and  C_39
REMARK   15  A    between atoms: C_36  and  C_41
REMARK   16  A    between atoms: C_41  and  C_47
REMARK   17  A    between atoms: C_46  and  C_49
REMARK                            x       y       z     vdW  Elec       q    Type
REMARK                         _______ _______ _______ _____ _____    ______ ____
ROOT
ATOM      1  O   UNL     1     116.098 117.914  27.919  0.00  0.00    -0.292 OA
ATOM      2  O   UNL     1     114.814 122.544  23.585  0.00  0.00    -0.461 OA
ATOM      3  O   UNL     1     115.424 120.782  22.311  0.00  0.00    -0.251 OA
ATOM      4  C   UNL     1     116.227 116.050  23.401  0.00  0.00    +0.006 C 
ATOM      5  C   UNL     1     116.214 117.491  23.878  0.00  0.00    +0.023 C 
ATOM      6  C   UNL     1     116.329 115.132  24.600  0.00  0.00    +0.018 C 
ATOM      7  C   UNL     1     114.730 117.733  24.291  0.00  0.00    +0.027 C 
ATOM      8  C   UNL     1     117.222 115.635  22.344  0.00  0.00    +0.036 C 
ATOM      9  C   UNL     1     116.739 113.821  23.930  0.00  0.00    +0.039 C 
ATOM     10  C   UNL     1     117.728 114.286  22.833  0.00  0.00    +0.122 C 
ATOM     11  C   UNL     1     114.944 119.181  24.832  0.00  0.00    +0.040 C 
ATOM     12  C   UNL     1     116.853 118.018  25.223  0.00  0.00    -0.015 C 
ATOM     13  C   UNL     1     115.038 115.370  25.371  0.00  0.00    -0.027 C 
ATOM     14  C   UNL     1     114.323 116.532  25.251  0.00  0.00    -0.026 C 
ATOM     15  C   UNL     1     116.024 118.927  25.829  0.00  0.00    -0.004 C 
ATOM     16  C   UNL     1     114.042 120.336  24.313  0.00  0.00    +0.129 C 
ATOM     17  C   UNL     1     115.980 118.995  27.327  0.00  0.00    +0.164 C 
ATOM     18  C   UNL     1     115.736 120.259  28.164  0.00  0.00    +0.086 C 
ATOM     19  C   UNL     1     114.814 121.219  23.291  0.00  0.00    +0.308 C 
ATOM     20  C   UNL     1     116.676 121.468  28.016  0.00  0.00    +0.132 C 
ATOM     21  C   UNL     1     114.272 120.535  28.488  0.00  0.00    +0.018 C 
ATOM     22  C   UNL     1     116.087 122.891  27.824  0.00  0.00    +0.032 C 
ATOM     23  C   UNL     1     116.040 122.999  24.212  0.00  0.00    +0.176 C 
ATOM     24  C   UNL     1     116.570 123.695  26.613  0.00  0.00    +0.006 C 
ATOM     25  C   UNL     1     115.534 123.641  25.504  0.00  0.00    +0.045 C 
ENDROOT
BRANCH  23  26
ATOM     26  C   UNL     1     116.775 124.030  23.325  0.00  0.00    +0.041 C 
ATOM     27  C   UNL     1     115.959 125.293  23.063  0.00  0.00    +0.007 C 
ENDBRANCH  23  26
BRANCH  10  28
ATOM     28  O   UNL     1     117.837 113.324  21.808  0.00  0.00    -0.345 OA
BRANCH  28  30
ATOM     29  O   UNL     1     118.963 111.401  20.856  0.00  0.00    -0.343 OA
ATOM     30  C   UNL     1     119.062 112.601  21.624  0.00  0.00    +0.282 C 
ATOM     31  C   UNL     1     119.926 112.437  22.889  0.00  0.00    +0.205 C 
ATOM     32  C   UNL     1     119.456 111.252  23.740  0.00  0.00    +0.179 C 
ATOM     33  C   UNL     1     118.550 110.213  21.526  0.00  0.00    +0.150 C 
ATOM     34  C   UNL     1     119.171 109.972  22.927  0.00  0.00    +0.177 C 
ATOM     35  C   UNL     1     118.866 109.043  20.598  0.00  0.00    +0.041 C 
BRANCH  31  36
ATOM     36  O   UNL     1     121.359 112.404  22.648  0.00  0.00    -0.372 OA
ATOM     37  C   UNL     1     121.931 113.374  21.785  0.00  0.00    +0.194 C 
ENDBRANCH  31  36
BRANCH  32  38
ATOM     38  O   UNL     1     120.419 110.993  24.781  0.00  0.00    -0.386 OA
ATOM     39  H   UNL     1     120.017 111.294  25.620  0.00  0.00    +0.210 HD
ENDBRANCH  32  38
BRANCH  34  40
ATOM     40  O   UNL     1     118.463 108.982  23.705  0.00  0.00    -0.375 OA
ATOM     41  C   UNL     1     119.153 107.786  24.036  0.00  0.00    +0.194 C 
ENDBRANCH  34  40
ENDBRANCH  28  30
ENDBRANCH  10  28
BRANCH  20  42
ATOM     42  O   UNL     1     117.763 121.181  27.163  0.00  0.00    -0.347 OA
BRANCH  42  44
ATOM     43  O   UNL     1     120.141 121.127  26.876  0.00  0.00    -0.347 OA
ATOM     44  C   UNL     1     119.058 121.451  27.739  0.00  0.00    +0.251 C 
ATOM     45  C   UNL     1     119.088 120.970  29.185  0.00  0.00    +0.063 C 
ATOM     46  C   UNL     1     119.887 119.705  29.389  0.00  0.00    +0.026 C 
ATOM     47  C   UNL     1     121.245 119.716  28.686  0.00  0.00    +0.085 C 
ATOM     48  C   UNL     1     121.123 120.142  27.202  0.00  0.00    +0.135 C 
ATOM     49  C   UNL     1     121.044 118.914  26.283  0.00  0.00    +0.039 C 
BRANCH  47  50
ATOM     50  N   UNL     1     122.296 120.428  29.463  0.00  0.00    -0.303 NA
ATOM     51  C   UNL     1     122.556 121.750  28.869  0.00  0.00    +0.105 C 
ATOM     52  C   UNL     1     122.018 120.601  30.890  0.00  0.00    +0.105 C 
ENDBRANCH  47  50
ENDBRANCH  42  44
ENDBRANCH  20  42
TORSDOF 9
ENDMDL
MODEL 5
REMARK VINA RESULT:      -7.8     17.049     25.892
REMARK  Name = 
REMARK  17 active torsions:
REMARK  status: ('A' for Active; 'I' for Inactive)
REMARK    1  A    between atoms: O_1  and  C_18
REMARK    2  A    between atoms: O_1  and  C_26
REMARK    3  A    between atoms: O_5  and  C_30
REMARK    4  A    between atoms: O_5  and  C_40
REMARK    5  A    between atoms: O_6  and  C_29
REMARK    6  A    between atoms: O_6  and  C_43
REMARK    7  A    between atoms: O_8  and  C_31
REMARK    8  A    between atoms: O_9  and  C_34
REMARK    9  A    between atoms: O_9  and  C_48
REMARK   10  A    between atoms: N_11  and  C_45
REMARK   11  A    between atoms: N_11  and  C_50
REMARK   12  A    between atoms: N_11  and  C_51
REMARK   13  A    between atoms: C_27  and  C_33
REMARK   14  A    between atoms: C_32  and  C_39
REMARK   15  A    between atoms: C_36  and  C_41
REMARK   16  A    between atoms: C_41  and  C_47
REMARK   17  A    between atoms: C_46  and  C_49
REMARK                            x       y       z     vdW  Elec       q    Type
REMARK                         _______ _______ _______ _____ _____    ______ ____
ROOT
ATOM      1  O   UNL     1     113.539 114.917  69.057  0.00  0.00    -0.292 OA
ATOM      2  O   UNL     1     109.082 118.192  65.699  0.00  0.00    -0.461 OA
ATOM      3  O   UNL     1     110.871 118.172  64.322  0.00  0.00    -0.251 OA
ATOM      4  C   UNL     1     115.149 115.747  64.515  0.00  0.00    +0.006 C 
ATOM      5  C   UNL     1     113.978 116.342  65.275  0.00  0.00    +0.023 C 
ATOM      6  C   UNL     1     115.941 114.854  65.446  0.00  0.00    +0.018 C 
ATOM      7  C   UNL     1     112.901 115.216  65.240  0.00  0.00    +0.027 C 
ATOM      8  C   UNL     1     116.082 116.668  63.764  0.00  0.00    +0.036 C 
ATOM      9  C   UNL     1     117.245 114.698  64.663  0.00  0.00    +0.039 C 
ATOM     10  C   UNL     1     117.464 116.112  64.071  0.00  0.00    +0.122 C 
ATOM     11  C   UNL     1     111.857 115.959  66.132  0.00  0.00    +0.040 C 
ATOM     12  C   UNL     1     113.923 116.582  66.835  0.00  0.00    -0.015 C 
ATOM     13  C   UNL     1     114.978 113.728  65.800  0.00  0.00    -0.027 C 
ATOM     14  C   UNL     1     113.619 113.882  65.724  0.00  0.00    -0.026 C 
ATOM     15  C   UNL     1     112.696 116.231  67.336  0.00  0.00    -0.004 C 
ATOM     16  C   UNL     1     110.396 116.126  65.628  0.00  0.00    +0.129 C 
ATOM     17  C   UNL     1     112.604 115.653  68.717  0.00  0.00    +0.164 C 
ATOM     18  C   UNL     1     111.435 115.840  69.695  0.00  0.00    +0.086 C 
ATOM     19  C   UNL     1     110.150 117.579  65.130  0.00  0.00    +0.308 C 
ATOM     20  C   UNL     1     111.019 117.256  70.130  0.00  0.00    +0.132 C 
ATOM     21  C   UNL     1     110.342 114.782  69.592  0.00  0.00    +0.018 C 
ATOM     22  C   UNL     1     109.526 117.675  70.087  0.00  0.00    +0.032 C 
ATOM     23  C   UNL     1     109.437 119.105  66.768  0.00  0.00    +0.176 C 
ATOM     24  C   UNL     1     109.173 118.945  69.305  0.00  0.00    +0.006 C 
ATOM     25  C   UNL     1     108.611 118.579  67.943  0.00  0.00    +0.045 C 
ENDROOT
BRANCH  23  26
ATOM     26  C   UNL     1     109.049 120.559  66.417  0.00  0.00    +0.041 C 
ATOM     27  C   UNL     1     110.193 121.357  65.795  0.00  0.00    +0.007 C 
ENDBRANCH  23  26
BRANCH  10  28
ATOM     28  O   UNL     1     118.310 116.064  62.944  0.00  0.00    -0.345 OA
BRANCH  28  30
ATOM     29  O   UNL     1     119.058 114.119  61.707  0.00  0.00    -0.343 OA
ATOM     30  C   UNL     1     118.058 115.120  61.893  0.00  0.00    +0.282 C 
ATOM     31  C   UNL     1     117.560 115.728  60.567  0.00  0.00    +0.205 C 
ATOM     32  C   UNL     1     118.724 116.237  59.711  0.00  0.00    +0.179 C 
ATOM     33  C   UNL     1     120.196 114.451  60.915  0.00  0.00    +0.150 C 
ATOM     34  C   UNL     1     119.910 115.253  59.619  0.00  0.00    +0.177 C 
ATOM     35  C   UNL     1     120.908 113.143  60.583  0.00  0.00    +0.041 C 
BRANCH  31  36
ATOM     36  O   UNL     1     116.654 114.880  59.811  0.00  0.00    -0.372 OA
ATOM     37  C   UNL     1     115.566 114.266  60.485  0.00  0.00    +0.194 C 
ENDBRANCH  31  36
BRANCH  32  38
ATOM     38  O   UNL     1     118.242 116.583  58.397  0.00  0.00    -0.386 OA
ATOM     39  H   UNL     1     117.503 117.211  58.523  0.00  0.00    +0.210 HD
ENDBRANCH  32  38
BRANCH  34  40
ATOM     40  O   UNL     1     121.087 115.875  59.057  0.00  0.00    -0.375 OA
ATOM     41  C   UNL     1     121.597 117.029  59.708  0.00  0.00    +0.194 C 
ENDBRANCH  34  40
ENDBRANCH  28  30
ENDBRANCH  10  28
BRANCH  20  42
ATOM     42  O   UNL     1     111.901 118.235  69.624  0.00  0.00    -0.347 OA
BRANCH  42  44
ATOM     43  O   UNL     1     112.365 118.513  71.958  0.00  0.00    -0.347 OA
ATOM     44  C   UNL     1     112.699 118.893  70.629  0.00  0.00    +0.251 C 
ATOM     45  C   UNL     1     112.837 120.373  70.290  0.00  0.00    +0.063 C 
ATOM     46  C   UNL     1     112.004 121.278  71.166  0.00  0.00    +0.026 C 
ATOM     47  C   UNL     1     112.100 120.948  72.657  0.00  0.00    +0.085 C 
ATOM     48  C   UNL     1     111.876 119.440  72.928  0.00  0.00    +0.135 C 
ATOM     49  C   UNL     1     110.415 119.163  73.314  0.00  0.00    +0.039 C 
BRANCH  47  50
ATOM     50  N   UNL     1     113.304 121.535  73.306  0.00  0.00    -0.303 NA
ATOM     51  C   UNL     1     114.258 120.470  73.657  0.00  0.00    +0.105 C 
ATOM     52  C   UNL     1     114.006 122.556  72.526  0.00  0.00    +0.105 C 
ENDBRANCH  47  50
ENDBRANCH  42  44
ENDBRANCH  20  42
TORSDOF 9
ENDMDL
MODEL 6
REMARK VINA RESULT:      -7.7     21.719     25.442
REMARK  Name = 
REMARK  17 active torsions:
REMARK  status: ('A' for Active; 'I' for Inactive)
REMARK    1  A    between atoms: O_1  and  C_18
REMARK    2  A    between atoms: O_1  and  C_26
REMARK    3  A    between atoms: O_5  and  C_30
REMARK    4  A    between atoms: O_5  and  C_40
REMARK    5  A    between atoms: O_6  and  C_29
REMARK    6  A    between atoms: O_6  and  C_43
REMARK    7  A    between atoms: O_8  and  C_31
REMARK    8  A    between atoms: O_9  and  C_34
REMARK    9  A    between atoms: O_9  and  C_48
REMARK   10  A    between atoms: N_11  and  C_45
REMARK   11  A    between atoms: N_11  and  C_50
REMARK   12  A    between atoms: N_11  and  C_51
REMARK   13  A    between atoms: C_27  and  C_33
REMARK   14  A    between atoms: C_32  and  C_39
REMARK   15  A    between atoms: C_36  and  C_41
REMARK   16  A    between atoms: C_41  and  C_47
REMARK   17  A    between atoms: C_46  and  C_49
REMARK                            x       y       z     vdW  Elec       q    Type
REMARK                         _______ _______ _______ _____ _____    ______ ____
ROOT
ATOM      1  O   UNL     1     135.359 121.432  54.055  0.00  0.00    -0.292 OA
ATOM      2  O   UNL     1     141.396 119.941  55.843  0.00  0.00    -0.461 OA
ATOM      3  O   UNL     1     140.261 119.974  57.794  0.00  0.00    -0.251 OA
ATOM      4  C   UNL     1     135.452 120.264  58.802  0.00  0.00    +0.006 C 
ATOM      5  C   UNL     1     136.580 120.579  57.837  0.00  0.00    +0.023 C 
ATOM      6  C   UNL     1     134.127 120.489  58.105  0.00  0.00    +0.018 C 
ATOM      7  C   UNL     1     136.716 119.280  56.986  0.00  0.00    +0.027 C 
ATOM      8  C   UNL     1     135.441 120.924  60.160  0.00  0.00    +0.036 C 
ATOM      9  C   UNL     1     133.173 120.533  59.298  0.00  0.00    +0.039 C 
ATOM     10  C   UNL     1     133.984 121.313  60.362  0.00  0.00    +0.122 C 
ATOM     11  C   UNL     1     137.814 119.828  56.022  0.00  0.00    +0.040 C 
ATOM     12  C   UNL     1     136.491 121.575  56.614  0.00  0.00    -0.015 C 
ATOM     13  C   UNL     1     134.105 119.454  56.988  0.00  0.00    -0.027 C 
ATOM     14  C   UNL     1     135.255 118.917  56.472  0.00  0.00    -0.026 C 
ATOM     15  C   UNL     1     137.125 121.051  55.516  0.00  0.00    -0.004 C 
ATOM     16  C   UNL     1     139.126 119.021  55.814  0.00  0.00    +0.129 C 
ATOM     17  C   UNL     1     136.591 121.353  54.147  0.00  0.00    +0.164 C 
ATOM     18  C   UNL     1     137.427 121.497  52.867  0.00  0.00    +0.086 C 
ATOM     19  C   UNL     1     140.301 119.672  56.597  0.00  0.00    +0.308 C 
ATOM     20  C   UNL     1     138.542 122.555  52.796  0.00  0.00    +0.132 C 
ATOM     21  C   UNL     1     137.627 120.202  52.088  0.00  0.00    +0.018 C 
ATOM     22  C   UNL     1     139.952 122.163  52.281  0.00  0.00    +0.032 C 
ATOM     23  C   UNL     1     141.497 121.330  55.440  0.00  0.00    +0.176 C 
ATOM     24  C   UNL     1     141.146 122.481  53.186  0.00  0.00    +0.006 C 
ATOM     25  C   UNL     1     141.595 121.229  53.917  0.00  0.00    +0.045 C 
ENDROOT
BRANCH  23  26
ATOM     26  C   UNL     1     142.755 121.998  56.039  0.00  0.00    +0.041 C 
ATOM     27  C   UNL     1     142.491 122.706  57.366  0.00  0.00    +0.007 C 
ENDBRANCH  23  26
BRANCH  10  28
ATOM     28  O   UNL     1     133.508 121.042  61.662  0.00  0.00    -0.345 OA
BRANCH  28  30
ATOM     29  O   UNL     1     133.938 119.142  63.103  0.00  0.00    -0.343 OA
ATOM     30  C   UNL     1     134.366 120.418  62.628  0.00  0.00    +0.282 C 
ATOM     31  C   UNL     1     134.872 121.341  63.753  0.00  0.00    +0.205 C 
ATOM     32  C   UNL     1     133.842 121.469  64.880  0.00  0.00    +0.179 C 
ATOM     33  C   UNL     1     132.988 119.110  64.165  0.00  0.00    +0.150 C 
ATOM     34  C   UNL     1     133.221 120.125  65.315  0.00  0.00    +0.177 C 
ATOM     35  C   UNL     1     132.974 117.685  64.711  0.00  0.00    +0.041 C 
BRANCH  31  36
ATOM     36  O   UNL     1     136.197 121.019  64.256  0.00  0.00    -0.372 OA
ATOM     37  C   UNL     1     137.333 121.486  63.545  0.00  0.00    +0.194 C 
ENDBRANCH  31  36
BRANCH  32  38
ATOM     38  O   UNL     1     134.438 122.145  66.005  0.00  0.00    -0.386 OA
ATOM     39  H   UNL     1     134.147 121.670  66.809  0.00  0.00    +0.210 HD
ENDBRANCH  32  38
BRANCH  34  40
ATOM     40  O   UNL     1     132.063 120.311  66.159  0.00  0.00    -0.375 OA
ATOM     41  C   UNL     1     132.171 119.924  67.521  0.00  0.00    +0.194 C 
ENDBRANCH  34  40
ENDBRANCH  28  30
ENDBRANCH  10  28
BRANCH  20  42
ATOM     42  O   UNL     1     138.562 123.367  53.950  0.00  0.00    -0.347 OA
BRANCH  42  44
ATOM     43  O   UNL     1     138.856 125.576  54.831  0.00  0.00    -0.347 OA
ATOM     44  C   UNL     1     138.595 124.784  53.679  0.00  0.00    +0.251 C 
ATOM     45  C   UNL     1     137.435 125.160  52.764  0.00  0.00    +0.063 C 
ATOM     46  C   UNL     1     136.318 125.892  53.466  0.00  0.00    +0.026 C 
ATOM     47  C   UNL     1     136.803 127.015  54.386  0.00  0.00    +0.085 C 
ATOM     48  C   UNL     1     137.928 126.537  55.336  0.00  0.00    +0.135 C 
ATOM     49  C   UNL     1     137.356 126.133  56.703  0.00  0.00    +0.039 C 
BRANCH  47  50
ATOM     50  N   UNL     1     137.087 128.281  53.656  0.00  0.00    -0.303 NA
ATOM     51  C   UNL     1     136.323 129.390  54.252  0.00  0.00    +0.105 C 
ATOM     52  C   UNL     1     138.498 128.667  53.587  0.00  0.00    +0.105 C 
ENDBRANCH  47  50
ENDBRANCH  42  44
ENDBRANCH  20  42
TORSDOF 9
ENDMDL
MODEL 7
REMARK VINA RESULT:      -7.7     21.806     25.575
REMARK  Name = 
REMARK  17 active torsions:
REMARK  status: ('A' for Active; 'I' for Inactive)
REMARK    1  A    between atoms: O_1  and  C_18
REMARK    2  A    between atoms: O_1  and  C_26
REMARK    3  A    between atoms: O_5  and  C_30
REMARK    4  A    between atoms: O_5  and  C_40
REMARK    5  A    between atoms: O_6  and  C_29
REMARK    6  A    between atoms: O_6  and  C_43
REMARK    7  A    between atoms: O_8  and  C_31
REMARK    8  A    between atoms: O_9  and  C_34
REMARK    9  A    between atoms: O_9  and  C_48
REMARK   10  A    between atoms: N_11  and  C_45
REMARK   11  A    between atoms: N_11  and  C_50
REMARK   12  A    between atoms: N_11  and  C_51
REMARK   13  A    between atoms: C_27  and  C_33
REMARK   14  A    between atoms: C_32  and  C_39
REMARK   15  A    between atoms: C_36  and  C_41
REMARK   16  A    between atoms: C_41  and  C_47
REMARK   17  A    between atoms: C_46  and  C_49
REMARK                            x       y       z     vdW  Elec       q    Type
REMARK                         _______ _______ _______ _____ _____    ______ ____
ROOT
ATOM      1  O   UNL     1     110.951 112.501  66.685  0.00  0.00    -0.292 OA
ATOM      2  O   UNL     1     108.048 118.248  67.329  0.00  0.00    -0.461 OA
ATOM      3  O   UNL     1     108.194 117.978  65.092  0.00  0.00    -0.251 OA
ATOM      4  C   UNL     1     109.463 114.116  62.317  0.00  0.00    +0.006 C 
ATOM      5  C   UNL     1     109.589 114.834  63.648  0.00  0.00    +0.023 C 
ATOM      6  C   UNL     1     110.022 112.716  62.454  0.00  0.00    +0.018 C 
ATOM      7  C   UNL     1     108.354 114.334  64.459  0.00  0.00    +0.027 C 
ATOM      8  C   UNL     1     110.012 114.773  61.073  0.00  0.00    +0.036 C 
ATOM      9  C   UNL     1     110.191 112.323  60.986  0.00  0.00    +0.039 C 
ATOM     10  C   UNL     1     110.697 113.633  60.334  0.00  0.00    +0.122 C 
ATOM     11  C   UNL     1     108.714 115.079  65.782  0.00  0.00    +0.040 C 
ATOM     12  C   UNL     1     110.663 114.519  64.762  0.00  0.00    -0.015 C 
ATOM     13  C   UNL     1     109.098 112.035  63.455  0.00  0.00    -0.027 C 
ATOM     14  C   UNL     1     108.358 112.746  64.362  0.00  0.00    -0.026 C 
ATOM     15  C   UNL     1     110.090 114.550  66.008  0.00  0.00    -0.004 C 
ATOM     16  C   UNL     1     107.655 115.991  66.462  0.00  0.00    +0.129 C 
ATOM     17  C   UNL     1     110.597 113.622  67.072  0.00  0.00    +0.164 C 
ATOM     18  C   UNL     1     110.644 113.919  68.578  0.00  0.00    +0.086 C 
ATOM     19  C   UNL     1     107.975 117.491  66.205  0.00  0.00    +0.308 C 
ATOM     20  C   UNL     1     111.432 115.135  69.095  0.00  0.00    +0.132 C 
ATOM     21  C   UNL     1     109.394 113.506  69.348  0.00  0.00    +0.018 C 
ATOM     22  C   UNL     1     110.777 116.113  70.105  0.00  0.00    +0.032 C 
ATOM     23  C   UNL     1     109.407 118.504  67.768  0.00  0.00    +0.176 C 
ATOM     24  C   UNL     1     110.761 117.600  69.737  0.00  0.00    +0.006 C 
ATOM     25  C   UNL     1     109.393 117.992  69.208  0.00  0.00    +0.045 C 
ENDROOT
BRANCH  23  26
ATOM     26  C   UNL     1     109.738 120.013  67.713  0.00  0.00    +0.041 C 
ATOM     27  C   UNL     1     110.309 120.459  66.369  0.00  0.00    +0.007 C 
ENDBRANCH  23  26
BRANCH  10  28
ATOM     28  O   UNL     1     110.447 113.637  58.946  0.00  0.00    -0.345 OA
BRANCH  28  30
ATOM     29  O   UNL     1     108.227 114.517  58.534  0.00  0.00    -0.343 OA
ATOM     30  C   UNL     1     109.636 114.667  58.362  0.00  0.00    +0.282 C 
ATOM     31  C   UNL     1     110.028 115.082  56.931  0.00  0.00    +0.205 C 
ATOM     32  C   UNL     1     109.424 114.138  55.887  0.00  0.00    +0.179 C 
ATOM     33  C   UNL     1     107.530 113.675  57.619  0.00  0.00    +0.150 C 
ATOM     34  C   UNL     1     107.936 113.808  56.128  0.00  0.00    +0.177 C 
ATOM     35  C   UNL     1     106.040 113.962  57.790  0.00  0.00    +0.041 C 
BRANCH  31  36
ATOM     36  O   UNL     1     109.781 116.479  56.614  0.00  0.00    -0.372 OA
ATOM     37  C   UNL     1     110.045 117.464  57.602  0.00  0.00    +0.194 C 
ENDBRANCH  31  36
BRANCH  32  38
ATOM     38  O   UNL     1     109.620 114.687  54.568  0.00  0.00    -0.386 OA
ATOM     39  H   UNL     1     109.135 114.109  53.946  0.00  0.00    +0.210 HD
ENDBRANCH  32  38
BRANCH  34  40
ATOM     40  O   UNL     1     107.486 112.705  55.310  0.00  0.00    -0.375 OA
ATOM     41  C   UNL     1     107.826 111.392  55.728  0.00  0.00    +0.194 C 
ENDBRANCH  34  40
ENDBRANCH  28  30
ENDBRANCH  10  28
BRANCH  20  42
ATOM     42  O   UNL     1     112.138 115.777  68.055  0.00  0.00    -0.347 OA
BRANCH  42  44
ATOM     43  O   UNL     1     114.012 114.961  69.305  0.00  0.00    -0.347 OA
ATOM     44  C   UNL     1     113.572 115.644  68.138  0.00  0.00    +0.251 C 
ATOM     45  C   UNL     1     114.234 116.961  67.752  0.00  0.00    +0.063 C 
ATOM     46  C   UNL     1     114.803 117.723  68.924  0.00  0.00    +0.026 C 
ATOM     47  C   UNL     1     115.613 116.853  69.887  0.00  0.00    +0.085 C 
ATOM     48  C   UNL     1     114.844 115.572  70.292  0.00  0.00    +0.135 C 
ATOM     49  C   UNL     1     114.115 115.768  71.629  0.00  0.00    +0.039 C 
BRANCH  47  50
ATOM     50  N   UNL     1     117.014 116.634  69.434  0.00  0.00    -0.303 NA
ATOM     51  C   UNL     1     117.806 117.859  69.630  0.00  0.00    +0.105 C 
ATOM     52  C   UNL     1     117.714 115.515  70.067  0.00  0.00    +0.105 C 
ENDBRANCH  47  50
ENDBRANCH  42  44
ENDBRANCH  20  42
TORSDOF 9
ENDMDL
MODEL 8
REMARK VINA RESULT:      -7.7     99.070    103.374
REMARK  Name = 
REMARK  17 active torsions:
REMARK  status: ('A' for Active; 'I' for Inactive)
REMARK    1  A    between atoms: O_1  and  C_18
REMARK    2  A    between atoms: O_1  and  C_26
REMARK    3  A    between atoms: O_5  and  C_30
REMARK    4  A    between atoms: O_5  and  C_40
REMARK    5  A    between atoms: O_6  and  C_29
REMARK    6  A    between atoms: O_6  and  C_43
REMARK    7  A    between atoms: O_8  and  C_31
REMARK    8  A    between atoms: O_9  and  C_34
REMARK    9  A    between atoms: O_9  and  C_48
REMARK   10  A    between atoms: N_11  and  C_45
REMARK   11  A    between atoms: N_11  and  C_50
REMARK   12  A    between atoms: N_11  and  C_51
REMARK   13  A    between atoms: C_27  and  C_33
REMARK   14  A    between atoms: C_32  and  C_39
REMARK   15  A    between atoms: C_36  and  C_41
REMARK   16  A    between atoms: C_41  and  C_47
REMARK   17  A    between atoms: C_46  and  C_49
REMARK                            x       y       z     vdW  Elec       q    Type
REMARK                         _______ _______ _______ _____ _____    ______ ____
ROOT
ATOM      1  O   UNL     1     121.123 113.578 161.211  0.00  0.00    -0.292 OA
ATOM      2  O   UNL     1     123.980 114.483 155.477  0.00  0.00    -0.461 OA
ATOM      3  O   UNL     1     121.884 113.850 154.928  0.00  0.00    -0.251 OA
ATOM      4  C   UNL     1     117.814 113.241 157.628  0.00  0.00    +0.006 C 
ATOM      5  C   UNL     1     119.330 113.241 157.579  0.00  0.00    +0.023 C 
ATOM      6  C   UNL     1     117.365 113.232 159.073  0.00  0.00    +0.018 C 
ATOM      7  C   UNL     1     119.709 114.739 157.788  0.00  0.00    +0.027 C 
ATOM      8  C   UNL     1     117.054 112.197 156.843  0.00  0.00    +0.036 C 
ATOM      9  C   UNL     1     115.900 112.821 158.923  0.00  0.00    +0.039 C 
ATOM     10  C   UNL     1     115.953 111.758 157.798  0.00  0.00    +0.122 C 
ATOM     11  C   UNL     1     121.254 114.517 157.810  0.00  0.00    +0.040 C 
ATOM     12  C   UNL     1     120.285 112.666 158.697  0.00  0.00    -0.015 C 
ATOM     13  C   UNL     1     117.862 114.559 159.632  0.00  0.00    -0.027 C 
ATOM     14  C   UNL     1     118.915 115.234 159.075  0.00  0.00    -0.026 C 
ATOM     15  C   UNL     1     121.352 113.503 158.900  0.00  0.00    -0.004 C 
ATOM     16  C   UNL     1     122.164 115.356 156.870  0.00  0.00    +0.129 C 
ATOM     17  C   UNL     1     121.934 113.632 160.277  0.00  0.00    +0.164 C 
ATOM     18  C   UNL     1     123.410 113.889 160.611  0.00  0.00    +0.086 C 
ATOM     19  C   UNL     1     122.636 114.503 155.657  0.00  0.00    +0.308 C 
ATOM     20  C   UNL     1     124.489 112.910 160.116  0.00  0.00    +0.132 C 
ATOM     21  C   UNL     1     123.789 115.361 160.727  0.00  0.00    +0.018 C 
ATOM     22  C   UNL     1     125.761 113.447 159.410  0.00  0.00    +0.032 C 
ATOM     23  C   UNL     1     124.617 113.283 155.986  0.00  0.00    +0.176 C 
ATOM     24  C   UNL     1     126.095 112.874 158.029  0.00  0.00    +0.006 C 
ATOM     25  C   UNL     1     125.668 113.845 156.943  0.00  0.00    +0.045 C 
ENDROOT
BRANCH  23  26
ATOM     26  C   UNL     1     125.274 112.471 154.847  0.00  0.00    +0.041 C 
ATOM     27  C   UNL     1     124.301 111.535 154.132  0.00  0.00    +0.007 C 
ENDBRANCH  23  26
BRANCH  10  28
ATOM     28  O   UNL     1     114.696 111.617 157.175  0.00  0.00    -0.345 OA
BRANCH  28  30
ATOM     29  O   UNL     1     113.222 109.696 157.273  0.00  0.00    -0.343 OA
ATOM     30  C   UNL     1     113.628 110.937 157.850  0.00  0.00    +0.282 C 
ATOM     31  C   UNL     1     112.441 111.826 158.267  0.00  0.00    +0.205 C 
ATOM     32  C   UNL     1     111.459 112.031 157.109  0.00  0.00    +0.179 C 
ATOM     33  C   UNL     1     112.294 109.737 156.191  0.00  0.00    +0.150 C 
ATOM     34  C   UNL     1     111.118 110.736 156.341  0.00  0.00    +0.177 C 
ATOM     35  C   UNL     1     111.764 108.318 156.003  0.00  0.00    +0.041 C 
BRANCH  31  36
ATOM     36  O   UNL     1     111.769 111.412 159.487  0.00  0.00    -0.372 OA
ATOM     37  C   UNL     1     112.057 112.098 160.696  0.00  0.00    +0.194 C 
ENDBRANCH  31  36
BRANCH  32  38
ATOM     38  O   UNL     1     110.262 112.668 157.597  0.00  0.00    -0.386 OA
ATOM     39  H   UNL     1     109.513 112.283 157.098  0.00  0.00    +0.210 HD
ENDBRANCH  32  38
BRANCH  34  40
ATOM     40  O   UNL     1     110.434 111.007 155.098  0.00  0.00    -0.375 OA
ATOM     41  C   UNL     1     109.039 110.746 155.042  0.00  0.00    +0.194 C 
ENDBRANCH  34  40
ENDBRANCH  28  30
ENDBRANCH  10  28
BRANCH  20  42
ATOM     42  O   UNL     1     123.919 111.784 159.485  0.00  0.00    -0.347 OA
BRANCH  42  44
ATOM     43  O   UNL     1     124.590 110.703 161.515  0.00  0.00    -0.347 OA
ATOM     44  C   UNL     1     124.142 110.537 160.176  0.00  0.00    +0.251 C 
ATOM     45  C   UNL     1     124.878 109.566 159.260  0.00  0.00    +0.063 C 
ATOM     46  C   UNL     1     126.331 109.374 159.617  0.00  0.00    +0.026 C 
ATOM     47  C   UNL     1     126.573 109.157 161.112  0.00  0.00    +0.085 C 
ATOM     48  C   UNL     1     125.856 110.226 161.973  0.00  0.00    +0.135 C 
ATOM     49  C   UNL     1     126.814 111.370 162.336  0.00  0.00    +0.039 C 
BRANCH  47  50
ATOM     50  N   UNL     1     126.350 107.748 161.538  0.00  0.00    -0.303 NA
ATOM     51  C   UNL     1     127.584 107.194 162.118  0.00  0.00    +0.105 C 
ATOM     52  C   UNL     1     125.252 107.541 162.484  0.00  0.00    +0.105 C 
ENDBRANCH  47  50
ENDBRANCH  42  44
ENDBRANCH  20  42
TORSDOF 9
ENDMDL
MODEL 9
REMARK VINA RESULT:      -7.6     11.614     20.790
REMARK  Name = 
REMARK  17 active torsions:
REMARK  status: ('A' for Active; 'I' for Inactive)
REMARK    1  A    between atoms: O_1  and  C_18
REMARK    2  A    between atoms: O_1  and  C_26
REMARK    3  A    between atoms: O_5  and  C_30
REMARK    4  A    between atoms: O_5  and  C_40
REMARK    5  A    between atoms: O_6  and  C_29
REMARK    6  A    between atoms: O_6  and  C_43
REMARK    7  A    between atoms: O_8  and  C_31
REMARK    8  A    between atoms: O_9  and  C_34
REMARK    9  A    between atoms: O_9  and  C_48
REMARK   10  A    between atoms: N_11  and  C_45
REMARK   11  A    between atoms: N_11  and  C_50
REMARK   12  A    between atoms: N_11  and  C_51
REMARK   13  A    between atoms: C_27  and  C_33
REMARK   14  A    between atoms: C_32  and  C_39
REMARK   15  A    between atoms: C_36  and  C_41
REMARK   16  A    between atoms: C_41  and  C_47
REMARK   17  A    between atoms: C_46  and  C_49
REMARK                            x       y       z     vdW  Elec       q    Type
REMARK                         _______ _______ _______ _____ _____    ______ ____
ROOT
ATOM      1  O   UNL     1     116.277 116.676  60.309  0.00  0.00    -0.292 OA
ATOM      2  O   UNL     1     113.328 114.977  65.812  0.00  0.00    -0.461 OA
ATOM      3  O   UNL     1     115.044 113.519  65.662  0.00  0.00    -0.251 OA
ATOM      4  C   UNL     1     118.939 113.315  62.659  0.00  0.00    +0.006 C 
ATOM      5  C   UNL     1     117.507 113.769  62.870  0.00  0.00    +0.023 C 
ATOM      6  C   UNL     1     119.497 113.995  61.428  0.00  0.00    +0.018 C 
ATOM      7  C   UNL     1     117.653 115.140  63.597  0.00  0.00    +0.027 C 
ATOM      8  C   UNL     1     119.243 111.836  62.616  0.00  0.00    +0.036 C 
ATOM      9  C   UNL     1     120.729 113.133  61.151  0.00  0.00    +0.039 C 
ATOM     10  C   UNL     1     120.228 111.702  61.465  0.00  0.00    +0.122 C 
ATOM     11  C   UNL     1     116.130 115.476  63.627  0.00  0.00    +0.040 C 
ATOM     12  C   UNL     1     116.529 114.279  61.740  0.00  0.00    -0.015 C 
ATOM     13  C   UNL     1     119.512 115.476  61.786  0.00  0.00    -0.027 C 
ATOM     14  C   UNL     1     118.685 116.000  62.744  0.00  0.00    -0.026 C 
ATOM     15  C   UNL     1     115.814 115.367  62.173  0.00  0.00    -0.004 C 
ATOM     16  C   UNL     1     115.453 115.859  64.973  0.00  0.00    +0.129 C 
ATOM     17  C   UNL     1     115.441 116.438  61.191  0.00  0.00    +0.164 C 
ATOM     18  C   UNL     1     114.166 117.293  61.233  0.00  0.00    +0.086 C 
ATOM     19  C   UNL     1     114.617 114.669  65.526  0.00  0.00    +0.308 C 
ATOM     20  C   UNL     1     112.787 116.612  61.198  0.00  0.00    +0.132 C 
ATOM     21  C   UNL     1     114.295 118.591  62.021  0.00  0.00    +0.018 C 
ATOM     22  C   UNL     1     111.694 117.017  62.222  0.00  0.00    +0.032 C 
ATOM     23  C   UNL     1     112.390 114.566  64.786  0.00  0.00    +0.176 C 
ATOM     24  C   UNL     1     111.062 115.898  63.056  0.00  0.00    +0.006 C 
ATOM     25  C   UNL     1     111.674 115.873  64.446  0.00  0.00    +0.045 C 
ENDROOT
BRANCH  23  26
ATOM     26  C   UNL     1     111.399 113.508  65.322  0.00  0.00    +0.041 C 
ATOM     27  C   UNL     1     111.536 113.257  66.823  0.00  0.00    +0.007 C 
ENDBRANCH  23  26
BRANCH  10  28
ATOM     28  O   UNL     1     121.306 110.839  61.750  0.00  0.00    -0.345 OA
BRANCH  28  30
ATOM     29  O   UNL     1     121.932 110.563  59.425  0.00  0.00    -0.343 OA
ATOM     30  C   UNL     1     122.353 110.649  60.786  0.00  0.00    +0.282 C 
ATOM     31  C   UNL     1     123.407 109.590  61.159  0.00  0.00    +0.205 C 
ATOM     32  C   UNL     1     122.937 108.178  60.796  0.00  0.00    +0.179 C 
ATOM     33  C   UNL     1     121.482 109.299  58.945  0.00  0.00    +0.150 C 
ATOM     34  C   UNL     1     122.315 108.068  59.388  0.00  0.00    +0.177 C 
ATOM     35  C   UNL     1     121.437 109.388  57.422  0.00  0.00    +0.041 C 
BRANCH  31  36
ATOM     36  O   UNL     1     124.747 109.864  60.667  0.00  0.00    -0.372 OA
ATOM     37  C   UNL     1     125.122 111.210  60.415  0.00  0.00    +0.194 C 
ENDBRANCH  31  36
BRANCH  32  38
ATOM     38  O   UNL     1     124.031 107.251  60.946  0.00  0.00    -0.386 OA
ATOM     39  H   UNL     1     124.406 107.397  61.837  0.00  0.00    +0.210 HD
ENDBRANCH  32  38
BRANCH  34  40
ATOM     40  O   UNL     1     121.628 106.811  59.195  0.00  0.00    -0.375 OA
ATOM     41  C   UNL     1     122.188 105.889  58.273  0.00  0.00    +0.194 C 
ENDBRANCH  34  40
ENDBRANCH  28  30
ENDBRANCH  10  28
BRANCH  20  42
ATOM     42  O   UNL     1     112.899 115.219  61.005  0.00  0.00    -0.347 OA
BRANCH  42  44
ATOM     43  O   UNL     1     112.198 115.763  58.779  0.00  0.00    -0.347 OA
ATOM     44  C   UNL     1     112.347 114.744  59.759  0.00  0.00    +0.251 C 
ATOM     45  C   UNL     1     111.180 113.803  60.039  0.00  0.00    +0.063 C 
ATOM     46  C   UNL     1     109.828 114.410  59.755  0.00  0.00    +0.026 C 
ATOM     47  C   UNL     1     109.754 115.148  58.417  0.00  0.00    +0.085 C 
ATOM     48  C   UNL     1     110.931 116.138  58.239  0.00  0.00    +0.135 C 
ATOM     49  C   UNL     1     110.519 117.559  58.652  0.00  0.00    +0.039 C 
BRANCH  47  50
ATOM     50  N   UNL     1     109.515 114.237  57.264  0.00  0.00    -0.303 NA
ATOM     51  C   UNL     1     108.283 113.461  57.481  0.00  0.00    +0.105 C 
ATOM     52  C   UNL     1     109.437 114.884  55.953  0.00  0.00    +0.105 C 
ENDBRANCH  47  50
ENDBRANCH  42  44
ENDBRANCH  20  42
TORSDOF 9
ENDMDL
MODEL 10
REMARK VINA RESULT:      -7.6     28.699     34.649
REMARK  Name = 
REMARK  17 active torsions:
REMARK  status: ('A' for Active; 'I' for Inactive)
REMARK    1  A    between atoms: O_1  and  C_18
REMARK    2  A    between atoms: O_1  and  C_26
REMARK    3  A    between atoms: O_5  and  C_30
REMARK    4  A    between atoms: O_5  and  C_40
REMARK    5  A    between atoms: O_6  and  C_29
REMARK    6  A    between atoms: O_6  and  C_43
REMARK    7  A    between atoms: O_8  and  C_31
REMARK    8  A    between atoms: O_9  and  C_34
REMARK    9  A    between atoms: O_9  and  C_48
REMARK   10  A    between atoms: N_11  and  C_45
REMARK   11  A    between atoms: N_11  and  C_50
REMARK   12  A    between atoms: N_11  and  C_51
REMARK   13  A    between atoms: C_27  and  C_33
REMARK   14  A    between atoms: C_32  and  C_39
REMARK   15  A    between atoms: C_36  and  C_41
REMARK   16  A    between atoms: C_41  and  C_47
REMARK   17  A    between atoms: C_46  and  C_49
REMARK                            x       y       z     vdW  Elec       q    Type
REMARK                         _______ _______ _______ _____ _____    ______ ____
ROOT
ATOM      1  O   UNL     1     113.001 128.042  58.535  0.00  0.00    -0.292 OA
ATOM      2  O   UNL     1     111.390 128.625  64.775  0.00  0.00    -0.461 OA
ATOM      3  O   UNL     1     110.615 130.532  63.849  0.00  0.00    -0.251 OA
ATOM      4  C   UNL     1     110.164 131.974  59.164  0.00  0.00    +0.006 C 
ATOM      5  C   UNL     1     110.894 131.108  60.174  0.00  0.00    +0.023 C 
ATOM      6  C   UNL     1     110.535 131.527  57.767  0.00  0.00    +0.018 C 
ATOM      7  C   UNL     1     110.018 129.822  60.266  0.00  0.00    +0.027 C 
ATOM      8  C   UNL     1     110.269 133.477  59.273  0.00  0.00    +0.036 C 
ATOM      9  C   UNL     1     110.064 132.724  56.942  0.00  0.00    +0.039 C 
ATOM     10  C   UNL     1     110.450 133.931  57.832  0.00  0.00    +0.122 C 
ATOM     11  C   UNL     1     110.962 129.047  61.237  0.00  0.00    +0.040 C 
ATOM     12  C   UNL     1     112.264 130.362  59.923  0.00  0.00    -0.015 C 
ATOM     13  C   UNL     1     109.991 130.108  57.665  0.00  0.00    -0.027 C 
ATOM     14  C   UNL     1     109.767 129.334  58.773  0.00  0.00    -0.026 C 
ATOM     15  C   UNL     1     112.232 129.099  60.456  0.00  0.00    -0.004 C 
ATOM     16  C   UNL     1     110.387 128.442  62.548  0.00  0.00    +0.129 C 
ATOM     17  C   UNL     1     112.982 127.995  59.772  0.00  0.00    +0.164 C 
ATOM     18  C   UNL     1     113.651 126.798  60.464  0.00  0.00    +0.086 C 
ATOM     19  C   UNL     1     110.782 129.312  63.775  0.00  0.00    +0.308 C 
ATOM     20  C   UNL     1     114.736 127.038  61.527  0.00  0.00    +0.132 C 
ATOM     21  C   UNL     1     112.756 125.575  60.627  0.00  0.00    +0.018 C 
ATOM     22  C   UNL     1     114.667 126.297  62.889  0.00  0.00    +0.032 C 
ATOM     23  C   UNL     1     112.834 128.768  64.784  0.00  0.00    +0.176 C 
ATOM     24  C   UNL     1     114.711 127.152  64.159  0.00  0.00    +0.006 C 
ATOM     25  C   UNL     1     113.312 127.317  64.725  0.00  0.00    +0.045 C 
ENDROOT
BRANCH  23  26
ATOM     26  C   UNL     1     113.320 129.467  66.073  0.00  0.00    +0.041 C 
ATOM     27  C   UNL     1     113.538 130.969  65.902  0.00  0.00    +0.007 C 
ENDBRANCH  23  26
BRANCH  10  28
ATOM     28  O   UNL     1     109.681 135.068  57.504  0.00  0.00    -0.345 OA
BRANCH  28  30
ATOM     29  O   UNL     1     111.742 136.326  57.299  0.00  0.00    -0.343 OA
ATOM     30  C   UNL     1     110.315 136.345  57.344  0.00  0.00    +0.282 C 
ATOM     31  C   UNL     1     109.755 137.474  58.231  0.00  0.00    +0.205 C 
ATOM     32  C   UNL     1     110.370 137.443  59.634  0.00  0.00    +0.179 C 
ATOM     33  C   UNL     1     112.448 136.312  58.537  0.00  0.00    +0.150 C 
ATOM     34  C   UNL     1     111.901 137.252  59.642  0.00  0.00    +0.177 C 
ATOM     35  C   UNL     1     113.904 136.650  58.226  0.00  0.00    +0.041 C 
BRANCH  31  36
ATOM     36  O   UNL     1     109.812 138.799  57.638  0.00  0.00    -0.372 OA
ATOM     37  C   UNL     1     109.562 138.939  56.247  0.00  0.00    +0.194 C 
ENDBRANCH  31  36
BRANCH  32  38
ATOM     38  O   UNL     1     109.999 138.637  60.351  0.00  0.00    -0.386 OA
ATOM     39  H   UNL     1     109.758 139.307  59.679  0.00  0.00    +0.210 HD
ENDBRANCH  32  38
BRANCH  34  40
ATOM     40  O   UNL     1     112.402 136.939  60.961  0.00  0.00    -0.375 OA
ATOM     41  C   UNL     1     113.186 137.922  61.619  0.00  0.00    +0.194 C 
ENDBRANCH  34  40
ENDBRANCH  28  30
ENDBRANCH  10  28
BRANCH  20  42
ATOM     42  O   UNL     1     115.061 128.406  61.640  0.00  0.00    -0.347 OA
BRANCH  42  44
ATOM     43  O   UNL     1     117.007 127.684  60.442  0.00  0.00    -0.347 OA
ATOM     44  C   UNL     1     116.364 128.753  61.124  0.00  0.00    +0.251 C 
ATOM     45  C   UNL     1     117.140 129.540  62.174  0.00  0.00    +0.063 C 
ATOM     46  C   UNL     1     118.237 128.748  62.841  0.00  0.00    +0.026 C 
ATOM     47  C   UNL     1     119.104 127.953  61.861  0.00  0.00    +0.085 C 
ATOM     48  C   UNL     1     118.245 127.122  60.877  0.00  0.00    +0.135 C 
ATOM     49  C   UNL     1     118.088 125.676  61.372  0.00  0.00    +0.039 C 
BRANCH  47  50
ATOM     50  N   UNL     1     120.171 128.777  61.230  0.00  0.00    -0.303 NA
ATOM     51  C   UNL     1     120.942 129.484  62.265  0.00  0.00    +0.105 C 
ATOM     52  C   UNL     1     121.102 128.049  60.365  0.00  0.00    +0.105 C 
ENDBRANCH  47  50
ENDBRANCH  42  44
ENDBRANCH  20  42
TORSDOF 9
ENDMDL
MODEL 11
REMARK VINA RESULT:      -7.6     31.119     34.604
REMARK  Name = 
REMARK  17 active torsions:
REMARK  status: ('A' for Active; 'I' for Inactive)
REMARK    1  A    between atoms: O_1  and  C_18
REMARK    2  A    between atoms: O_1  and  C_26
REMARK    3  A    between atoms: O_5  and  C_30
REMARK    4  A    between atoms: O_5  and  C_40
REMARK    5  A    between atoms: O_6  and  C_29
REMARK    6  A    between atoms: O_6  and  C_43
REMARK    7  A    between atoms: O_8  and  C_31
REMARK    8  A    between atoms: O_9  and  C_34
REMARK    9  A    between atoms: O_9  and  C_48
REMARK   10  A    between atoms: N_11  and  C_45
REMARK   11  A    between atoms: N_11  and  C_50
REMARK   12  A    between atoms: N_11  and  C_51
REMARK   13  A    between atoms: C_27  and  C_33
REMARK   14  A    between atoms: C_32  and  C_39
REMARK   15  A    between atoms: C_36  and  C_41
REMARK   16  A    between atoms: C_41  and  C_47
REMARK   17  A    between atoms: C_46  and  C_49
REMARK                            x       y       z     vdW  Elec       q    Type
REMARK                         _______ _______ _______ _____ _____    ______ ____
ROOT
ATOM      1  O   UNL     1     112.860 130.987  69.433  0.00  0.00    -0.292 OA
ATOM      2  O   UNL     1     118.973 129.765  67.704  0.00  0.00    -0.461 OA
ATOM      3  O   UNL     1     117.813 129.459  65.792  0.00  0.00    -0.251 OA
ATOM      4  C   UNL     1     113.140 130.426  64.584  0.00  0.00    +0.006 C 
ATOM      5  C   UNL     1     114.140 130.100  65.678  0.00  0.00    +0.023 C 
ATOM      6  C   UNL     1     111.845 130.885  65.218  0.00  0.00    +0.018 C 
ATOM      7  C   UNL     1     114.730 131.489  66.070  0.00  0.00    +0.027 C 
ATOM      8  C   UNL     1     112.858 129.396  63.516  0.00  0.00    +0.036 C 
ATOM      9  C   UNL     1     110.882 130.761  64.037  0.00  0.00    +0.039 C 
ATOM     10  C   UNL     1     111.347 129.456  63.346  0.00  0.00    +0.122 C 
ATOM     11  C   UNL     1     115.624 130.965  67.237  0.00  0.00    +0.040 C 
ATOM     12  C   UNL     1     113.777 129.649  67.148  0.00  0.00    -0.015 C 
ATOM     13  C   UNL     1     112.210 132.179  65.934  0.00  0.00    -0.027 C 
ATOM     14  C   UNL     1     113.492 132.453  66.330  0.00  0.00    -0.026 C 
ATOM     15  C   UNL     1     114.592 130.271  68.060  0.00  0.00    -0.004 C 
ATOM     16  C   UNL     1     117.136 131.325  67.267  0.00  0.00    +0.129 C 
ATOM     17  C   UNL     1     114.044 130.628  69.410  0.00  0.00    +0.164 C 
ATOM     18  C   UNL     1     114.836 130.651  70.725  0.00  0.00    +0.086 C 
ATOM     19  C   UNL     1     117.999 130.109  66.825  0.00  0.00    +0.308 C 
ATOM     20  C   UNL     1     115.543 129.376  71.216  0.00  0.00    +0.132 C 
ATOM     21  C   UNL     1     115.483 131.992  71.055  0.00  0.00    +0.018 C 
ATOM     22  C   UNL     1     117.023 129.437  71.679  0.00  0.00    +0.032 C 
ATOM     23  C   UNL     1     118.627 128.633  68.542  0.00  0.00    +0.176 C 
ATOM     24  C   UNL     1     118.008 128.470  71.016  0.00  0.00    +0.006 C 
ATOM     25  C   UNL     1     118.814 129.193  69.952  0.00  0.00    +0.045 C 
ENDROOT
BRANCH  23  26
ATOM     26  C   UNL     1     119.570 127.436  68.285  0.00  0.00    +0.041 C 
ATOM     27  C   UNL     1     121.004 127.685  68.746  0.00  0.00    +0.007 C 
ENDBRANCH  23  26
BRANCH  10  28
ATOM     28  O   UNL     1     110.936 129.422  61.997  0.00  0.00    -0.345 OA
BRANCH  28  30
ATOM     29  O   UNL     1     110.728 131.399  60.612  0.00  0.00    -0.343 OA
ATOM     30  C   UNL     1     111.537 130.302  61.037  0.00  0.00    +0.282 C 
ATOM     31  C   UNL     1     112.269 129.607  59.874  0.00  0.00    +0.205 C 
ATOM     32  C   UNL     1     111.298 129.201  58.761  0.00  0.00    +0.179 C 
ATOM     33  C   UNL     1     109.786 131.167  59.568  0.00  0.00    +0.150 C 
ATOM     34  C   UNL     1     110.286 130.303  58.381  0.00  0.00    +0.177 C 
ATOM     35  C   UNL     1     109.324 132.535  59.070  0.00  0.00    +0.041 C 
BRANCH  31  36
ATOM     36  O   UNL     1     113.420 130.331  59.359  0.00  0.00    -0.372 OA
ATOM     37  C   UNL     1     114.718 129.801  59.578  0.00  0.00    +0.194 C 
ENDBRANCH  31  36
BRANCH  32  38
ATOM     38  O   UNL     1     112.041 128.768  57.604  0.00  0.00    -0.386 OA
ATOM     39  H   UNL     1     111.792 127.836  57.440  0.00  0.00    +0.210 HD
ENDBRANCH  32  38
BRANCH  34  40
ATOM     40  O   UNL     1     109.217 129.795  57.552  0.00  0.00    -0.375 OA
ATOM     41  C   UNL     1     108.218 129.003  58.176  0.00  0.00    +0.194 C 
ENDBRANCH  34  40
ENDBRANCH  28  30
ENDBRANCH  10  28
BRANCH  20  42
ATOM     42  O   UNL     1     115.248 128.269  70.393  0.00  0.00    -0.347 OA
BRANCH  42  44
ATOM     43  O   UNL     1     114.932 126.540  72.022  0.00  0.00    -0.347 OA
ATOM     44  C   UNL     1     114.343 127.313  70.984  0.00  0.00    +0.251 C 
ATOM     45  C   UNL     1     113.552 126.607  69.888  0.00  0.00    +0.063 C 
ATOM     46  C   UNL     1     113.993 125.186  69.638  0.00  0.00    +0.026 C 
ATOM     47  C   UNL     1     114.190 124.369  70.916  0.00  0.00    +0.085 C 
ATOM     48  C   UNL     1     115.065 125.120  71.950  0.00  0.00    +0.135 C 
ATOM     49  C   UNL     1     116.532 124.676  71.853  0.00  0.00    +0.039 C 
BRANCH  47  50
ATOM     50  N   UNL     1     112.917 123.812  71.451  0.00  0.00    -0.303 NA
ATOM     51  C   UNL     1     112.776 122.403  71.049  0.00  0.00    +0.105 C 
ATOM     52  C   UNL     1     112.747 123.906  72.902  0.00  0.00    +0.105 C 
ENDBRANCH  47  50
ENDBRANCH  42  44
ENDBRANCH  20  42
TORSDOF 9
ENDMDL
MODEL 12
REMARK VINA RESULT:      -7.5     17.363     23.328
REMARK  Name = 
REMARK  17 active torsions:
REMARK  status: ('A' for Active; 'I' for Inactive)
REMARK    1  A    between atoms: O_1  and  C_18
REMARK    2  A    between atoms: O_1  and  C_26
REMARK    3  A    between atoms: O_5  and  C_30
REMARK    4  A    between atoms: O_5  and  C_40
REMARK    5  A    between atoms: O_6  and  C_29
REMARK    6  A    between atoms: O_6  and  C_43
REMARK    7  A    between atoms: O_8  and  C_31
REMARK    8  A    between atoms: O_9  and  C_34
REMARK    9  A    between atoms: O_9  and  C_48
REMARK   10  A    between atoms: N_11  and  C_45
REMARK   11  A    between atoms: N_11  and  C_50
REMARK   12  A    between atoms: N_11  and  C_51
REMARK   13  A    between atoms: C_27  and  C_33
REMARK   14  A    between atoms: C_32  and  C_39
REMARK   15  A    between atoms: C_36  and  C_41
REMARK   16  A    between atoms: C_41  and  C_47
REMARK   17  A    between atoms: C_46  and  C_49
REMARK                            x       y       z     vdW  Elec       q    Type
REMARK                         _______ _______ _______ _____ _____    ______ ____
ROOT
ATOM      1  O   UNL     1     112.842 118.017  64.125  0.00  0.00    -0.292 OA
ATOM      2  O   UNL     1     117.779 114.078  62.721  0.00  0.00    -0.461 OA
ATOM      3  O   UNL     1     116.425 113.888  60.925  0.00  0.00    -0.251 OA
ATOM      4  C   UNL     1     112.435 116.409  59.526  0.00  0.00    +0.006 C 
ATOM      5  C   UNL     1     113.317 115.935  60.666  0.00  0.00    +0.023 C 
ATOM      6  C   UNL     1     111.493 117.476  60.039  0.00  0.00    +0.018 C 
ATOM      7  C   UNL     1     114.444 117.009  60.737  0.00  0.00    +0.027 C 
ATOM      8  C   UNL     1     111.671 115.388  58.715  0.00  0.00    +0.036 C 
ATOM      9  C   UNL     1     110.458 117.517  58.914  0.00  0.00    +0.039 C 
ATOM     10  C   UNL     1     110.301 116.024  58.534  0.00  0.00    +0.122 C 
ATOM     11  C   UNL     1     115.158 116.418  61.993  0.00  0.00    +0.040 C 
ATOM     12  C   UNL     1     112.940 115.983  62.199  0.00  0.00    -0.015 C 
ATOM     13  C   UNL     1     112.407 118.624  60.447  0.00  0.00    -0.027 C 
ATOM     14  C   UNL     1     113.722 118.426  60.773  0.00  0.00    -0.026 C 
ATOM     15  C   UNL     1     114.013 116.391  62.949  0.00  0.00    -0.004 C 
ATOM     16  C   UNL     1     116.684 116.127  61.944  0.00  0.00    +0.129 C 
ATOM     17  C   UNL     1     113.778 117.209  64.184  0.00  0.00    +0.164 C 
ATOM     18  C   UNL     1     114.629 117.176  65.462  0.00  0.00    +0.086 C 
ATOM     19  C   UNL     1     116.947 114.602  61.786  0.00  0.00    +0.308 C 
ATOM     20  C   UNL     1     114.811 115.854  66.227  0.00  0.00    +0.132 C 
ATOM     21  C   UNL     1     115.784 118.172  65.483  0.00  0.00    +0.018 C 
ATOM     22  C   UNL     1     116.228 115.399  66.666  0.00  0.00    +0.032 C 
ATOM     23  C   UNL     1     117.088 113.385  63.791  0.00  0.00    +0.176 C 
ATOM     24  C   UNL     1     116.682 114.000  66.238  0.00  0.00    +0.006 C 
ATOM     25  C   UNL     1     117.610 114.096  65.040  0.00  0.00    +0.045 C 
ENDROOT
BRANCH  23  26
ATOM     26  C   UNL     1     117.449 111.882  63.811  0.00  0.00    +0.041 C 
ATOM     27  C   UNL     1     118.450 111.486  62.728  0.00  0.00    +0.007 C 
ENDBRANCH  23  26
BRANCH  10  28
ATOM     28  O   UNL     1     109.789 115.885  57.227  0.00  0.00    -0.345 OA
BRANCH  28  30
ATOM     29  O   UNL     1     107.656 115.003  57.966  0.00  0.00    -0.343 OA
ATOM     30  C   UNL     1     108.684 115.005  56.975  0.00  0.00    +0.282 C 
ATOM     31  C   UNL     1     109.064 113.591  56.497  0.00  0.00    +0.205 C 
ATOM     32  C   UNL     1     109.410 112.674  57.675  0.00  0.00    +0.179 C 
ATOM     33  C   UNL     1     107.840 114.179  59.114  0.00  0.00    +0.150 C 
ATOM     34  C   UNL     1     108.414 112.763  58.851  0.00  0.00    +0.177 C 
ATOM     35  C   UNL     1     106.488 114.081  59.816  0.00  0.00    +0.041 C 
BRANCH  31  36
ATOM     36  O   UNL     1     108.109 112.978  55.589  0.00  0.00    -0.372 OA
ATOM     37  C   UNL     1     108.487 112.764  54.238  0.00  0.00    +0.194 C 
ENDBRANCH  31  36
BRANCH  32  38
ATOM     38  O   UNL     1     109.534 111.315  57.210  0.00  0.00    -0.386 OA
ATOM     39  H   UNL     1     109.591 111.354  56.234  0.00  0.00    +0.210 HD
ENDBRANCH  32  38
BRANCH  34  40
ATOM     40  O   UNL     1     108.921 112.119  60.040  0.00  0.00    -0.375 OA
ATOM     41  C   UNL     1     110.220 112.482  60.485  0.00  0.00    +0.194 C 
ENDBRANCH  34  40
ENDBRANCH  28  30
ENDBRANCH  10  28
BRANCH  20  42
ATOM     42  O   UNL     1     114.026 114.820  65.673  0.00  0.00    -0.347 OA
BRANCH  42  44
ATOM     43  O   UNL     1     112.144 113.359  65.928  0.00  0.00    -0.347 OA
ATOM     44  C   UNL     1     112.923 114.401  66.503  0.00  0.00    +0.251 C 
ATOM     45  C   UNL     1     112.220 115.624  67.082  0.00  0.00    +0.063 C 
ATOM     46  C   UNL     1     110.888 115.921  66.438  0.00  0.00    +0.026 C 
ATOM     47  C   UNL     1     109.998 114.687  66.269  0.00  0.00    +0.085 C 
ATOM     48  C   UNL     1     110.761 113.514  65.607  0.00  0.00    +0.135 C 
ATOM     49  C   UNL     1     110.507 113.478  64.093  0.00  0.00    +0.039 C 
BRANCH  47  50
ATOM     50  N   UNL     1     109.249 114.337  67.507  0.00  0.00    -0.303 NA
ATOM     51  C   UNL     1     107.890 113.888  67.164  0.00  0.00    +0.105 C 
ATOM     52  C   UNL     1     109.877 113.326  68.360  0.00  0.00    +0.105 C 
ENDBRANCH  47  50
ENDBRANCH  42  44
ENDBRANCH  20  42
TORSDOF 9
ENDMDL
MODEL 13
REMARK VINA RESULT:      -7.5     37.847     43.379
REMARK  Name = 
REMARK  17 active torsions:
REMARK  status: ('A' for Active; 'I' for Inactive)
REMARK    1  A    between atoms: O_1  and  C_18
REMARK    2  A    between atoms: O_1  and  C_26
REMARK    3  A    between atoms: O_5  and  C_30
REMARK    4  A    between atoms: O_5  and  C_40
REMARK    5  A    between atoms: O_6  and  C_29
REMARK    6  A    between atoms: O_6  and  C_43
REMARK    7  A    between atoms: O_8  and  C_31
REMARK    8  A    between atoms: O_9  and  C_34
REMARK    9  A    between atoms: O_9  and  C_48
REMARK   10  A    between atoms: N_11  and  C_45
REMARK   11  A    between atoms: N_11  and  C_50
REMARK   12  A    between atoms: N_11  and  C_51
REMARK   13  A    between atoms: C_27  and  C_33
REMARK   14  A    between atoms: C_32  and  C_39
REMARK   15  A    between atoms: C_36  and  C_41
REMARK   16  A    between atoms: C_41  and  C_47
REMARK   17  A    between atoms: C_46  and  C_49
REMARK                            x       y       z     vdW  Elec       q    Type
REMARK                         _______ _______ _______ _____ _____    ______ ____
ROOT
ATOM      1  O   UNL     1     118.994 138.134  45.188  0.00  0.00    -0.292 OA
ATOM      2  O   UNL     1     113.238 135.661  43.574  0.00  0.00    -0.461 OA
ATOM      3  O   UNL     1     112.977 137.876  43.226  0.00  0.00    -0.251 OA
ATOM      4  C   UNL     1     116.188 141.606  43.196  0.00  0.00    +0.006 C 
ATOM      5  C   UNL     1     115.836 140.222  43.709  0.00  0.00    +0.023 C 
ATOM      6  C   UNL     1     117.641 141.895  43.504  0.00  0.00    +0.018 C 
ATOM      7  C   UNL     1     116.347 139.268  42.587  0.00  0.00    +0.027 C 
ATOM      8  C   UNL     1     115.329 142.781  43.602  0.00  0.00    +0.036 C 
ATOM      9  C   UNL     1     117.687 143.410  43.307  0.00  0.00    +0.039 C 
ATOM     10  C   UNL     1     116.338 143.878  43.907  0.00  0.00    +0.122 C 
ATOM     11  C   UNL     1     115.999 137.940  43.329  0.00  0.00    +0.040 C 
ATOM     12  C   UNL     1     116.552 139.478  44.904  0.00  0.00    -0.015 C 
ATOM     13  C   UNL     1     118.413 140.869  42.685  0.00  0.00    -0.027 C 
ATOM     14  C   UNL     1     117.850 139.688  42.281  0.00  0.00    -0.026 C 
ATOM     15  C   UNL     1     116.746 138.154  44.603  0.00  0.00    -0.004 C 
ATOM     16  C   UNL     1     115.145 136.859  42.610  0.00  0.00    +0.129 C 
ATOM     17  C   UNL     1     117.963 137.452  45.129  0.00  0.00    +0.164 C 
ATOM     18  C   UNL     1     118.048 135.971  45.524  0.00  0.00    +0.086 C 
ATOM     19  C   UNL     1     113.684 136.868  43.143  0.00  0.00    +0.308 C 
ATOM     20  C   UNL     1     117.110 135.412  46.607  0.00  0.00    +0.132 C 
ATOM     21  C   UNL     1     118.463 135.034  44.394  0.00  0.00    +0.018 C 
ATOM     22  C   UNL     1     116.326 134.097  46.354  0.00  0.00    +0.032 C 
ATOM     23  C   UNL     1     113.279 135.507  45.015  0.00  0.00    +0.176 C 
ATOM     24  C   UNL     1     114.806 134.137  46.540  0.00  0.00    +0.006 C 
ATOM     25  C   UNL     1     114.118 134.240  45.190  0.00  0.00    +0.045 C 
ENDROOT
BRANCH  23  26
ATOM     26  C   UNL     1     111.861 135.324  45.601  0.00  0.00    +0.041 C 
ATOM     27  C   UNL     1     111.072 134.197  44.937  0.00  0.00    +0.007 C 
ENDBRANCH  23  26
BRANCH  10  28
ATOM     28  O   UNL     1     115.966 145.138  43.395  0.00  0.00    -0.345 OA
BRANCH  28  30
ATOM     29  O   UNL     1     115.709 145.903  45.680  0.00  0.00    -0.343 OA
ATOM     30  C   UNL     1     115.608 146.203  44.288  0.00  0.00    +0.282 C 
ATOM     31  C   UNL     1     114.316 146.959  43.927  0.00  0.00    +0.205 C 
ATOM     32  C   UNL     1     113.073 146.227  44.444  0.00  0.00    +0.179 C 
ATOM     33  C   UNL     1     114.613 145.233  46.299  0.00  0.00    +0.150 C 
ATOM     34  C   UNL     1     113.200 145.730  45.899  0.00  0.00    +0.177 C 
ATOM     35  C   UNL     1     114.810 145.352  47.808  0.00  0.00    +0.041 C 
BRANCH  31  36
ATOM     36  O   UNL     1     114.312 148.367  44.290  0.00  0.00    -0.372 OA
ATOM     37  C   UNL     1     115.538 149.082  44.274  0.00  0.00    +0.194 C 
ENDBRANCH  31  36
BRANCH  32  38
ATOM     38  O   UNL     1     111.915 147.072  44.290  0.00  0.00    -0.386 OA
ATOM     39  H   UNL     1     111.137 146.532  44.534  0.00  0.00    +0.210 HD
ENDBRANCH  32  38
BRANCH  34  40
ATOM     40  O   UNL     1     112.146 144.806  46.250  0.00  0.00    -0.375 OA
ATOM     41  C   UNL     1     112.286 143.457  45.832  0.00  0.00    +0.194 C 
ENDBRANCH  34  40
ENDBRANCH  28  30
ENDBRANCH  10  28
BRANCH  20  42
ATOM     42  O   UNL     1     116.336 136.432  47.201  0.00  0.00    -0.347 OA
BRANCH  42  44
ATOM     43  O   UNL     1     115.693 135.996  49.468  0.00  0.00    -0.347 OA
ATOM     44  C   UNL     1     116.611 136.649  48.601  0.00  0.00    +0.251 C 
ATOM     45  C   UNL     1     116.944 138.119  48.837  0.00  0.00    +0.063 C 
ATOM     46  C   UNL     1     115.838 138.891  49.515  0.00  0.00    +0.026 C 
ATOM     47  C   UNL     1     115.230 138.167  50.717  0.00  0.00    +0.085 C 
ATOM     48  C   UNL     1     114.850 136.705  50.378  0.00  0.00    +0.135 C 
ATOM     49  C   UNL     1     113.365 136.597  50.000  0.00  0.00    +0.039 C 
BRANCH  47  50
ATOM     50  N   UNL     1     116.026 138.340  51.963  0.00  0.00    -0.303 NA
ATOM     51  C   UNL     1     115.437 139.403  52.795  0.00  0.00    +0.105 C 
ATOM     52  C   UNL     1     116.188 137.137  52.782  0.00  0.00    +0.105 C 
ENDBRANCH  47  50
ENDBRANCH  42  44
ENDBRANCH  20  42
TORSDOF 9
ENDMDL
MODEL 14
REMARK VINA RESULT:      -7.5     37.757     41.776
REMARK  Name = 
REMARK  17 active torsions:
REMARK  status: ('A' for Active; 'I' for Inactive)
REMARK    1  A    between atoms: O_1  and  C_18
REMARK    2  A    between atoms: O_1  and  C_26
REMARK    3  A    between atoms: O_5  and  C_30
REMARK    4  A    between atoms: O_5  and  C_40
REMARK    5  A    between atoms: O_6  and  C_29
REMARK    6  A    between atoms: O_6  and  C_43
REMARK    7  A    between atoms: O_8  and  C_31
REMARK    8  A    between atoms: O_9  and  C_34
REMARK    9  A    between atoms: O_9  and  C_48
REMARK   10  A    between atoms: N_11  and  C_45
REMARK   11  A    between atoms: N_11  and  C_50
REMARK   12  A    between atoms: N_11  and  C_51
REMARK   13  A    between atoms: C_27  and  C_33
REMARK   14  A    between atoms: C_32  and  C_39
REMARK   15  A    between atoms: C_36  and  C_41
REMARK   16  A    between atoms: C_41  and  C_47
REMARK   17  A    between atoms: C_46  and  C_49
REMARK                            x       y       z     vdW  Elec       q    Type
REMARK                         _______ _______ _______ _____ _____    ______ ____
ROOT
ATOM      1  O   UNL     1     146.476 102.597  24.668  0.00  0.00    -0.292 OA
ATOM      2  O   UNL     1     149.578 108.170  23.578  0.00  0.00    -0.461 OA
ATOM      3  O   UNL     1     147.914 108.186  22.053  0.00  0.00    -0.251 OA
ATOM      4  C   UNL     1     143.979 105.292  21.442  0.00  0.00    +0.006 C 
ATOM      5  C   UNL     1     145.397 105.433  21.963  0.00  0.00    +0.023 C 
ATOM      6  C   UNL     1     143.376 104.016  21.988  0.00  0.00    +0.018 C 
ATOM      7  C   UNL     1     145.212 106.036  23.389  0.00  0.00    +0.027 C 
ATOM      8  C   UNL     1     143.730 105.388  19.955  0.00  0.00    +0.036 C 
ATOM      9  C   UNL     1     142.172 103.842  21.062  0.00  0.00    +0.039 C 
ATOM     10  C   UNL     1     142.730 104.273  19.684  0.00  0.00    +0.122 C 
ATOM     11  C   UNL     1     146.723 106.006  23.778  0.00  0.00    +0.040 C 
ATOM     12  C   UNL     1     146.336 104.242  22.403  0.00  0.00    -0.015 C 
ATOM     13  C   UNL     1     143.313 104.240  23.493  0.00  0.00    -0.027 C 
ATOM     14  C   UNL     1     144.136 105.130  24.131  0.00  0.00    -0.026 C 
ATOM     15  C   UNL     1     147.018 104.561  23.550  0.00  0.00    -0.004 C 
ATOM     16  C   UNL     1     147.407 107.298  24.305  0.00  0.00    +0.129 C 
ATOM     17  C   UNL     1     147.335 103.480  24.540  0.00  0.00    +0.164 C 
ATOM     18  C   UNL     1     148.579 103.419  25.439  0.00  0.00    +0.086 C 
ATOM     19  C   UNL     1     148.296 107.938  23.200  0.00  0.00    +0.308 C 
ATOM     20  C   UNL     1     149.981 103.418  24.807  0.00  0.00    +0.132 C 
ATOM     21  C   UNL     1     148.415 104.090  26.799  0.00  0.00    +0.018 C 
ATOM     22  C   UNL     1     151.075 104.380  25.341  0.00  0.00    +0.032 C 
ATOM     23  C   UNL     1     150.513 107.166  23.109  0.00  0.00    +0.176 C 
ATOM     24  C   UNL     1     151.762 105.298  24.325  0.00  0.00    +0.006 C 
ATOM     25  C   UNL     1     151.175 106.696  24.404  0.00  0.00    +0.045 C 
ENDROOT
BRANCH  23  26
ATOM     26  C   UNL     1     151.550 107.776  22.139  0.00  0.00    +0.041 C 
ATOM     27  C   UNL     1     152.698 108.490  22.850  0.00  0.00    +0.007 C 
ENDBRANCH  23  26
BRANCH  10  28
ATOM     28  O   UNL     1     141.690 104.656  18.812  0.00  0.00    -0.345 OA
BRANCH  28  30
ATOM     29  O   UNL     1     140.858 105.377  16.653  0.00  0.00    -0.343 OA
ATOM     30  C   UNL     1     141.987 105.071  17.471  0.00  0.00    +0.282 C 
ATOM     31  C   UNL     1     143.050 104.228  16.742  0.00  0.00    +0.205 C 
ATOM     32  C   UNL     1     142.438 102.968  16.121  0.00  0.00    +0.179 C 
ATOM     33  C   UNL     1     140.197 104.297  15.999  0.00  0.00    +0.150 C 
ATOM     34  C   UNL     1     141.117 103.221  15.365  0.00  0.00    +0.177 C 
ATOM     35  C   UNL     1     139.285 104.907  14.938  0.00  0.00    +0.041 C 
BRANCH  31  36
ATOM     36  O   UNL     1     143.865 104.965  15.791  0.00  0.00    -0.372 OA
ATOM     37  C   UNL     1     145.132 105.454  16.207  0.00  0.00    +0.194 C 
ENDBRANCH  31  36
BRANCH  32  38
ATOM     38  O   UNL     1     143.406 102.332  15.263  0.00  0.00    -0.386 OA
ATOM     39  H   UNL     1     144.123 102.981  15.115  0.00  0.00    +0.210 HD
ENDBRANCH  32  38
BRANCH  34  40
ATOM     40  O   UNL     1     140.428 101.991  15.050  0.00  0.00    -0.375 OA
ATOM     41  C   UNL     1     140.377 101.594  13.688  0.00  0.00    +0.194 C 
ENDBRANCH  34  40
ENDBRANCH  28  30
ENDBRANCH  10  28
BRANCH  20  42
ATOM     42  O   UNL     1     149.917 103.353  23.399  0.00  0.00    -0.347 OA
BRANCH  42  44
ATOM     43  O   UNL     1     150.899 101.207  23.811  0.00  0.00    -0.347 OA
ATOM     44  C   UNL     1     150.395 102.113  22.838  0.00  0.00    +0.251 C 
ATOM     45  C   UNL     1     151.219 102.398  21.587  0.00  0.00    +0.063 C 
ATOM     46  C   UNL     1     152.705 102.227  21.786  0.00  0.00    +0.026 C 
ATOM     47  C   UNL     1     153.082 100.942  22.527  0.00  0.00    +0.085 C 
ATOM     48  C   UNL     1     152.256 100.762  23.823  0.00  0.00    +0.135 C 
ATOM     49  C   UNL     1     153.029 101.282  25.044  0.00  0.00    +0.039 C 
BRANCH  47  50
ATOM     50  N   UNL     1     153.130  99.751  21.635  0.00  0.00    -0.303 NA
ATOM     51  C   UNL     1     154.504  99.227  21.566  0.00  0.00    +0.105 C 
ATOM     52  C   UNL     1     152.227  98.656  21.997  0.00  0.00    +0.105 C 
ENDBRANCH  47  50
ENDBRANCH  42  44
ENDBRANCH  20  42
TORSDOF 9
ENDMDL
MODEL 15
REMARK VINA RESULT:      -7.4     70.125     76.112
REMARK  Name = 
REMARK  17 active torsions:
REMARK  status: ('A' for Active; 'I' for Inactive)
REMARK    1  A    between atoms: O_1  and  C_18
REMARK    2  A    between atoms: O_1  and  C_26
REMARK    3  A    between atoms: O_5  and  C_30
REMARK    4  A    between atoms: O_5  and  C_40
REMARK    5  A    between atoms: O_6  and  C_29
REMARK    6  A    between atoms: O_6  and  C_43
REMARK    7  A    between atoms: O_8  and  C_31
REMARK    8  A    between atoms: O_9  and  C_34
REMARK    9  A    between atoms: O_9  and  C_48
REMARK   10  A    between atoms: N_11  and  C_45
REMARK   11  A    between atoms: N_11  and  C_50
REMARK   12  A    between atoms: N_11  and  C_51
REMARK   13  A    between atoms: C_27  and  C_33
REMARK   14  A    between atoms: C_32  and  C_39
REMARK   15  A    between atoms: C_36  and  C_41
REMARK   16  A    between atoms: C_41  and  C_47
REMARK   17  A    between atoms: C_46  and  C_49
REMARK                            x       y       z     vdW  Elec       q    Type
REMARK                         _______ _______ _______ _____ _____    ______ ____
ROOT
ATOM      1  O   UNL     1     101.559 146.033 109.841  0.00  0.00    -0.292 OA
ATOM      2  O   UNL     1     105.917 146.062 105.059  0.00  0.00    -0.461 OA
ATOM      3  O   UNL     1     107.161 146.423 106.909  0.00  0.00    -0.251 OA
ATOM      4  C   UNL     1     106.076 146.185 111.704  0.00  0.00    +0.006 C 
ATOM      5  C   UNL     1     105.581 146.414 110.288  0.00  0.00    +0.023 C 
ATOM      6  C   UNL     1     104.887 146.002 112.621  0.00  0.00    +0.018 C 
ATOM      7  C   UNL     1     105.292 144.977 109.758  0.00  0.00    +0.027 C 
ATOM      8  C   UNL     1     107.051 147.168 112.309  0.00  0.00    +0.036 C 
ATOM      9  C   UNL     1     105.539 146.203 113.989  0.00  0.00    +0.039 C 
ATOM     10  C   UNL     1     106.540 147.356 113.730  0.00  0.00    +0.122 C 
ATOM     11  C   UNL     1     104.714 145.422 108.379  0.00  0.00    +0.040 C 
ATOM     12  C   UNL     1     104.179 147.025 109.894  0.00  0.00    -0.015 C 
ATOM     13  C   UNL     1     104.225 144.720 112.133  0.00  0.00    -0.027 C 
ATOM     14  C   UNL     1     104.389 144.260 110.853  0.00  0.00    -0.026 C 
ATOM     15  C   UNL     1     103.632 146.341 108.838  0.00  0.00    -0.004 C 
ATOM     16  C   UNL     1     105.291 144.812 107.070  0.00  0.00    +0.129 C 
ATOM     17  C   UNL     1     102.143 146.182 108.759  0.00  0.00    +0.164 C 
ATOM     18  C   UNL     1     101.311 146.118 107.470  0.00  0.00    +0.086 C 
ATOM     19  C   UNL     1     106.230 145.827 106.358  0.00  0.00    +0.308 C 
ATOM     20  C   UNL     1     101.360 147.285 106.469  0.00  0.00    +0.132 C 
ATOM     21  C   UNL     1     101.109 144.714 106.911  0.00  0.00    +0.018 C 
ATOM     22  C   UNL     1     101.580 147.006 104.959  0.00  0.00    +0.032 C 
ATOM     23  C   UNL     1     105.181 147.294 104.852  0.00  0.00    +0.176 C 
ATOM     24  C   UNL     1     102.734 147.740 104.268  0.00  0.00    +0.006 C 
ATOM     25  C   UNL     1     103.927 146.813 104.120  0.00  0.00    +0.045 C 
ENDROOT
BRANCH  23  26
ATOM     26  C   UNL     1     105.986 148.291 103.988  0.00  0.00    +0.041 C 
ATOM     27  C   UNL     1     106.712 147.629 102.818  0.00  0.00    +0.007 C 
ENDBRANCH  23  26
BRANCH  10  28
ATOM     28  O   UNL     1     107.567 147.362 114.696  0.00  0.00    -0.345 OA
BRANCH  28  30
ATOM     29  O   UNL     1     109.110 148.688 116.013  0.00  0.00    -0.343 OA
ATOM     30  C   UNL     1     107.784 148.524 115.510  0.00  0.00    +0.282 C 
ATOM     31  C   UNL     1     106.699 148.798 116.570  0.00  0.00    +0.205 C 
ATOM     32  C   UNL     1     106.933 147.973 117.839  0.00  0.00    +0.179 C 
ATOM     33  C   UNL     1     109.463 147.987 117.203  0.00  0.00    +0.150 C 
ATOM     34  C   UNL     1     108.396 147.981 118.330  0.00  0.00    +0.177 C 
ATOM     35  C   UNL     1     110.767 148.597 117.712  0.00  0.00    +0.041 C 
BRANCH  31  36
ATOM     36  O   UNL     1     106.476 150.204 116.863  0.00  0.00    -0.372 OA
ATOM     37  C   UNL     1     105.268 150.812 116.432  0.00  0.00    +0.194 C 
ENDBRANCH  31  36
BRANCH  32  38
ATOM     38  O   UNL     1     106.042 148.424 118.879  0.00  0.00    -0.386 OA
ATOM     39  H   UNL     1     106.100 147.770 119.604  0.00  0.00    +0.210 HD
ENDBRANCH  32  38
BRANCH  34  40
ATOM     40  O   UNL     1     108.635 146.976 119.340  0.00  0.00    -0.375 OA
ATOM     41  C   UNL     1     109.062 147.416 120.620  0.00  0.00    +0.194 C 
ENDBRANCH  34  40
ENDBRANCH  28  30
ENDBRANCH  10  28
BRANCH  20  42
ATOM     42  O   UNL     1     102.121 148.365 106.966  0.00  0.00    -0.347 OA
BRANCH  42  44
ATOM     43  O   UNL     1     101.757 150.140 108.533  0.00  0.00    -0.347 OA
ATOM     44  C   UNL     1     101.344 149.529 107.318  0.00  0.00    +0.251 C 
ATOM     45  C   UNL     1      99.863 149.247 107.091  0.00  0.00    +0.063 C 
ATOM     46  C   UNL     1      99.081 149.037 108.364  0.00  0.00    +0.026 C 
ATOM     47  C   UNL     1      99.380 150.077 109.447  0.00  0.00    +0.085 C 
ATOM     48  C   UNL     1     100.902 150.252 109.672  0.00  0.00    +0.135 C 
ATOM     49  C   UNL     1     101.385 149.393 110.850  0.00  0.00    +0.039 C 
BRANCH  47  50
ATOM     50  N   UNL     1      98.618 151.342 109.263  0.00  0.00    -0.303 NA
ATOM     51  C   UNL     1      97.177 151.054 109.171  0.00  0.00    +0.105 C 
ATOM     52  C   UNL     1      98.828 152.361 110.293  0.00  0.00    +0.105 C 
ENDBRANCH  47  50
ENDBRANCH  42  44
ENDBRANCH  20  42
TORSDOF 9
ENDMDL
MODEL 16
REMARK VINA RESULT:      -7.4    100.500    105.479
REMARK  Name = 
REMARK  17 active torsions:
REMARK  status: ('A' for Active; 'I' for Inactive)
REMARK    1  A    between atoms: O_1  and  C_18
REMARK    2  A    between atoms: O_1  and  C_26
REMARK    3  A    between atoms: O_5  and  C_30
REMARK    4  A    between atoms: O_5  and  C_40
REMARK    5  A    between atoms: O_6  and  C_29
REMARK    6  A    between atoms: O_6  and  C_43
REMARK    7  A    between atoms: O_8  and  C_31
REMARK    8  A    between atoms: O_9  and  C_34
REMARK    9  A    between atoms: O_9  and  C_48
REMARK   10  A    between atoms: N_11  and  C_45
REMARK   11  A    between atoms: N_11  and  C_50
REMARK   12  A    between atoms: N_11  and  C_51
REMARK   13  A    between atoms: C_27  and  C_33
REMARK   14  A    between atoms: C_32  and  C_39
REMARK   15  A    between atoms: C_36  and  C_41
REMARK   16  A    between atoms: C_41  and  C_47
REMARK   17  A    between atoms: C_46  and  C_49
REMARK                            x       y       z     vdW  Elec       q    Type
REMARK                         _______ _______ _______ _____ _____    ______ ____
ROOT
ATOM      1  O   UNL     1     114.665 119.023 161.744  0.00  0.00    -0.292 OA
ATOM      2  O   UNL     1     116.032 116.110 156.131  0.00  0.00    -0.461 OA
ATOM      3  O   UNL     1     114.700 117.827 155.523  0.00  0.00    -0.251 OA
ATOM      4  C   UNL     1     112.979 121.705 158.020  0.00  0.00    +0.006 C 
ATOM      5  C   UNL     1     113.480 120.273 158.062  0.00  0.00    +0.023 C 
ATOM      6  C   UNL     1     112.931 122.255 159.429  0.00  0.00    +0.018 C 
ATOM      7  C   UNL     1     115.029 120.422 158.142  0.00  0.00    +0.027 C 
ATOM      8  C   UNL     1     111.687 122.010 157.300  0.00  0.00    +0.036 C 
ATOM      9  C   UNL     1     112.047 123.486 159.232  0.00  0.00    +0.039 C 
ATOM     10  C   UNL     1     110.980 122.989 158.226  0.00  0.00    +0.122 C 
ATOM     11  C   UNL     1     115.335 118.898 158.280  0.00  0.00    +0.040 C 
ATOM     12  C   UNL     1     113.340 119.288 159.289  0.00  0.00    -0.015 C 
ATOM     13  C   UNL     1     114.386 122.269 159.880  0.00  0.00    -0.027 C 
ATOM     14  C   UNL     1     115.328 121.447 159.322  0.00  0.00    -0.026 C 
ATOM     15  C   UNL     1     114.497 118.574 159.471  0.00  0.00    -0.004 C 
ATOM     16  C   UNL     1     116.355 118.229 157.316  0.00  0.00    +0.129 C 
ATOM     17  C   UNL     1     114.914 118.193 160.860  0.00  0.00    +0.164 C 
ATOM     18  C   UNL     1     115.672 116.917 161.255  0.00  0.00    +0.086 C 
ATOM     19  C   UNL     1     115.618 117.398 156.227  0.00  0.00    +0.308 C 
ATOM     20  C   UNL     1     115.071 115.539 160.928  0.00  0.00    +0.132 C 
ATOM     21  C   UNL     1     117.190 117.049 161.244  0.00  0.00    +0.018 C 
ATOM     22  C   UNL     1     115.946 114.452 160.249  0.00  0.00    +0.032 C 
ATOM     23  C   UNL     1     115.154 115.166 156.796  0.00  0.00    +0.176 C 
ATOM     24  C   UNL     1     115.414 113.826 158.956  0.00  0.00    +0.006 C 
ATOM     25  C   UNL     1     116.104 114.446 157.754  0.00  0.00    +0.045 C 
ENDROOT
BRANCH  23  26
ATOM     26  C   UNL     1     114.522 114.181 155.787  0.00  0.00    +0.041 C 
ATOM     27  C   UNL     1     115.383 113.950 154.546  0.00  0.00    +0.007 C 
ENDBRANCH  23  26
BRANCH  10  28
ATOM     28  O   UNL     1     110.383 124.071 157.545  0.00  0.00    -0.345 OA
BRANCH  28  30
ATOM     29  O   UNL     1     108.194 124.975 158.058  0.00  0.00    -0.343 OA
ATOM     30  C   UNL     1     109.605 125.036 158.267  0.00  0.00    +0.282 C 
ATOM     31  C   UNL     1     110.156 126.475 158.245  0.00  0.00    +0.205 C 
ATOM     32  C   UNL     1     109.735 127.218 156.973  0.00  0.00    +0.179 C 
ATOM     33  C   UNL     1     107.660 125.639 156.915  0.00  0.00    +0.150 C 
ATOM     34  C   UNL     1     108.246 127.042 156.609  0.00  0.00    +0.177 C 
ATOM     35  C   UNL     1     106.149 125.727 157.114  0.00  0.00    +0.041 C 
BRANCH  31  36
ATOM     36  O   UNL     1     109.885 127.249 159.445  0.00  0.00    -0.372 OA
ATOM     37  C   UNL     1     110.941 127.478 160.366  0.00  0.00    +0.194 C 
ENDBRANCH  31  36
BRANCH  32  38
ATOM     38  O   UNL     1     110.070 128.615 157.096  0.00  0.00    -0.386 OA
ATOM     39  H   UNL     1     110.924 128.742 156.635  0.00  0.00    +0.210 HD
ENDBRANCH  32  38
BRANCH  34  40
ATOM     40  O   UNL     1     107.956 127.505 155.271  0.00  0.00    -0.375 OA
ATOM     41  C   UNL     1     107.216 128.708 155.135  0.00  0.00    +0.194 C 
ENDBRANCH  34  40
ENDBRANCH  28  30
ENDBRANCH  10  28
BRANCH  20  42
ATOM     42  O   UNL     1     113.776 115.652 160.380  0.00  0.00    -0.347 OA
BRANCH  42  44
ATOM     43  O   UNL     1     113.022 113.797 161.696  0.00  0.00    -0.347 OA
ATOM     44  C   UNL     1     112.730 115.100 161.206  0.00  0.00    +0.251 C 
ATOM     45  C   UNL     1     111.373 115.369 160.566  0.00  0.00    +0.063 C 
ATOM     46  C   UNL     1     110.744 114.149 159.937  0.00  0.00    +0.026 C 
ATOM     47  C   UNL     1     110.803 112.903 160.822  0.00  0.00    +0.085 C 
ATOM     48  C   UNL     1     112.228 112.654 161.373  0.00  0.00    +0.135 C 
ATOM     49  C   UNL     1     112.987 111.646 160.497  0.00  0.00    +0.039 C 
BRANCH  47  50
ATOM     50  N   UNL     1     109.716 112.859 161.838  0.00  0.00    -0.303 NA
ATOM     51  C   UNL     1     108.404 112.971 161.178  0.00  0.00    +0.105 C 
ATOM     52  C   UNL     1     109.708 111.679 162.704  0.00  0.00    +0.105 C 
ENDBRANCH  47  50
ENDBRANCH  42  44
ENDBRANCH  20  42
TORSDOF 9
ENDMDL
MODEL 17
REMARK VINA RESULT:      -7.4     61.054     66.750
REMARK  Name = 
REMARK  17 active torsions:
REMARK  status: ('A' for Active; 'I' for Inactive)
REMARK    1  A    between atoms: O_1  and  C_18
REMARK    2  A    between atoms: O_1  and  C_26
REMARK    3  A    between atoms: O_5  and  C_30
REMARK    4  A    between atoms: O_5  and  C_40
REMARK    5  A    between atoms: O_6  and  C_29
REMARK    6  A    between atoms: O_6  and  C_43
REMARK    7  A    between atoms: O_8  and  C_31
REMARK    8  A    between atoms: O_9  and  C_34
REMARK    9  A    between atoms: O_9  and  C_48
REMARK   10  A    between atoms: N_11  and  C_45
REMARK   11  A    between atoms: N_11  and  C_50
REMARK   12  A    between atoms: N_11  and  C_51
REMARK   13  A    between atoms: C_27  and  C_33
REMARK   14  A    between atoms: C_32  and  C_39
REMARK   15  A    between atoms: C_36  and  C_41
REMARK   16  A    between atoms: C_41  and  C_47
REMARK   17  A    between atoms: C_46  and  C_49
REMARK                            x       y       z     vdW  Elec       q    Type
REMARK                         _______ _______ _______ _____ _____    ______ ____
ROOT
ATOM      1  O   UNL     1      91.510 110.173 109.835  0.00  0.00    -0.292 OA
ATOM      2  O   UNL     1      92.773 114.300 105.014  0.00  0.00    -0.461 OA
ATOM      3  O   UNL     1      92.784 115.614 106.849  0.00  0.00    -0.251 OA
ATOM      4  C   UNL     1      92.678 114.558 111.656  0.00  0.00    +0.006 C 
ATOM      5  C   UNL     1      92.320 114.136 110.243  0.00  0.00    +0.023 C 
ATOM      6  C   UNL     1      92.502 113.377 112.585  0.00  0.00    +0.018 C 
ATOM      7  C   UNL     1      93.611 113.434 109.725  0.00  0.00    +0.027 C 
ATOM      8  C   UNL     1      92.020 115.784 112.246  0.00  0.00    +0.036 C 
ATOM      9  C   UNL     1      92.496 114.074 113.946  0.00  0.00    +0.039 C 
ATOM     10  C   UNL     1      91.687 115.365 113.670  0.00  0.00    +0.122 C 
ATOM     11  C   UNL     1      93.021 112.997 108.348  0.00  0.00    +0.040 C 
ATOM     12  C   UNL     1      91.326 112.970 109.858  0.00  0.00    -0.015 C 
ATOM     13  C   UNL     1      93.537 112.364 112.111  0.00  0.00    -0.027 C 
ATOM     14  C   UNL     1      94.029 112.373 110.833  0.00  0.00    -0.026 C 
ATOM     15  C   UNL     1      91.825 112.236 108.812  0.00  0.00    -0.004 C 
ATOM     16  C   UNL     1      93.778 113.356 107.039  0.00  0.00    +0.129 C 
ATOM     17  C   UNL     1      91.542 110.764 108.748  0.00  0.00    +0.164 C 
ATOM     18  C   UNL     1      91.365 109.936 107.466  0.00  0.00    +0.086 C 
ATOM     19  C   UNL     1      93.084 114.543 106.311  0.00  0.00    +0.308 C 
ATOM     20  C   UNL     1      90.266 110.313 106.458  0.00  0.00    +0.132 C 
ATOM     21  C   UNL     1      92.651 109.327 106.919  0.00  0.00    +0.018 C 
ATOM     22  C   UNL     1      90.603 110.426 104.948  0.00  0.00    +0.032 C 
ATOM     23  C   UNL     1      91.380 113.953 104.806  0.00  0.00    +0.176 C 
ATOM     24  C   UNL     1      90.241 111.736 104.241  0.00  0.00    +0.006 C 
ATOM     25  C   UNL     1      91.476 112.606 104.089  0.00  0.00    +0.045 C 
ENDROOT
BRANCH  23  26
ATOM     26  C   UNL     1      90.665 115.005 103.928  0.00  0.00    +0.041 C 
ATOM     27  C   UNL     1      89.790 115.968 104.728  0.00  0.00    +0.007 C 
ENDBRANCH  23  26
BRANCH  10  28
ATOM     28  O   UNL     1      91.977 116.359 114.627  0.00  0.00    -0.345 OA
BRANCH  28  30
ATOM     29  O   UNL     1      91.146 118.166 116.012  0.00  0.00    -0.343 OA
ATOM     30  C   UNL     1      90.944 116.852 115.492  0.00  0.00    +0.282 C 
ATOM     31  C   UNL     1      90.441 115.854 116.553  0.00  0.00    +0.205 C 
ATOM     32  C   UNL     1      91.348 115.845 117.788  0.00  0.00    +0.179 C 
ATOM     33  C   UNL     1      91.960 118.304 117.174  0.00  0.00    +0.150 C 
ATOM     34  C   UNL     1      91.736 117.251 118.290  0.00  0.00    +0.177 C 
ATOM     35  C   UNL     1      91.728 119.712 117.718  0.00  0.00    +0.041 C 
BRANCH  31  36
ATOM     36  O   UNL     1      89.038 115.994 116.905  0.00  0.00    -0.372 OA
ATOM     37  C   UNL     1      88.145 116.553 115.953  0.00  0.00    +0.194 C 
ENDBRANCH  31  36
BRANCH  32  38
ATOM     38  O   UNL     1      90.724 115.080 118.839  0.00  0.00    -0.386 OA
ATOM     39  H   UNL     1      90.968 114.144 118.691  0.00  0.00    +0.210 HD
ENDBRANCH  32  38
BRANCH  34  40
ATOM     40  O   UNL     1      92.808 117.205 119.258  0.00  0.00    -0.375 OA
ATOM     41  C   UNL     1      92.554 117.740 120.549  0.00  0.00    +0.194 C 
ENDBRANCH  34  40
ENDBRANCH  28  30
ENDBRANCH  10  28
BRANCH  20  42
ATOM     42  O   UNL     1      89.454 111.362 106.941  0.00  0.00    -0.347 OA
BRANCH  42  44
ATOM     43  O   UNL     1      87.629 111.559 108.480  0.00  0.00    -0.347 OA
ATOM     44  C   UNL     1      88.110 110.965 107.281  0.00  0.00    +0.251 C 
ATOM     45  C   UNL     1      87.949 109.463 107.077  0.00  0.00    +0.063 C 
ATOM     46  C   UNL     1      87.904 108.676 108.364  0.00  0.00    +0.026 C 
ATOM     47  C   UNL     1      86.982 109.284 109.424  0.00  0.00    +0.085 C 
ATOM     48  C   UNL     1      87.256 110.794 109.627  0.00  0.00    +0.135 C 
ATOM     49  C   UNL     1      88.203 111.025 110.814  0.00  0.00    +0.039 C 
BRANCH  47  50
ATOM     50  N   UNL     1      85.552 108.921 109.227  0.00  0.00    -0.303 NA
ATOM     51  C   UNL     1      85.420 107.466 109.050  0.00  0.00    +0.105 C 
ATOM     52  C   UNL     1      84.640 109.350 110.289  0.00  0.00    +0.105 C 
ENDBRANCH  47  50
ENDBRANCH  42  44
ENDBRANCH  20  42
TORSDOF 9
ENDMDL
MODEL 18
REMARK VINA RESULT:      -7.3     85.634     92.615
REMARK  Name = 
REMARK  17 active torsions:
REMARK  status: ('A' for Active; 'I' for Inactive)
REMARK    1  A    between atoms: O_1  and  C_18
REMARK    2  A    between atoms: O_1  and  C_26
REMARK    3  A    between atoms: O_5  and  C_30
REMARK    4  A    between atoms: O_5  and  C_40
REMARK    5  A    between atoms: O_6  and  C_29
REMARK    6  A    between atoms: O_6  and  C_43
REMARK    7  A    between atoms: O_8  and  C_31
REMARK    8  A    between atoms: O_9  and  C_34
REMARK    9  A    between atoms: O_9  and  C_48
REMARK   10  A    between atoms: N_11  and  C_45
REMARK   11  A    between atoms: N_11  and  C_50
REMARK   12  A    between atoms: N_11  and  C_51
REMARK   13  A    between atoms: C_27  and  C_33
REMARK   14  A    between atoms: C_32  and  C_39
REMARK   15  A    between atoms: C_36  and  C_41
REMARK   16  A    between atoms: C_41  and  C_47
REMARK   17  A    between atoms: C_46  and  C_49
REMARK                            x       y       z     vdW  Elec       q    Type
REMARK                         _______ _______ _______ _____ _____    ______ ____
ROOT
ATOM      1  O   UNL     1      97.420 131.584 139.003  0.00  0.00    -0.292 OA
ATOM      2  O   UNL     1      91.726 128.644 138.110  0.00  0.00    -0.461 OA
ATOM      3  O   UNL     1      92.200 129.505 136.078  0.00  0.00    -0.251 OA
ATOM      4  C   UNL     1      96.265 131.594 134.252  0.00  0.00    +0.006 C 
ATOM      5  C   UNL     1      95.423 131.284 135.475  0.00  0.00    +0.023 C 
ATOM      6  C   UNL     1      97.629 132.074 134.699  0.00  0.00    +0.018 C 
ATOM      7  C   UNL     1      95.880 129.852 135.890  0.00  0.00    +0.027 C 
ATOM      8  C   UNL     1      95.711 132.518 133.193  0.00  0.00    +0.036 C 
ATOM      9  C   UNL     1      98.153 132.708 133.410  0.00  0.00    +0.039 C 
ATOM     10  C   UNL     1      96.895 133.402 132.830  0.00  0.00    +0.122 C 
ATOM     11  C   UNL     1      95.005 129.766 137.179  0.00  0.00    +0.040 C 
ATOM     12  C   UNL     1      95.600 131.938 136.902  0.00  0.00    -0.015 C 
ATOM     13  C   UNL     1      98.240 130.874 135.410  0.00  0.00    -0.027 C 
ATOM     14  C   UNL     1      97.469 129.883 135.956  0.00  0.00    -0.026 C 
ATOM     15  C   UNL     1      95.469 130.994 137.888  0.00  0.00    -0.004 C 
ATOM     16  C   UNL     1      94.065 128.546 137.389  0.00  0.00    +0.129 C 
ATOM     17  C   UNL     1      96.278 131.126 139.143  0.00  0.00    +0.164 C 
ATOM     18  C   UNL     1      95.841 130.684 140.548  0.00  0.00    +0.086 C 
ATOM     19  C   UNL     1      92.586 128.936 137.103  0.00  0.00    +0.308 C 
ATOM     20  C   UNL     1      94.559 131.266 141.169  0.00  0.00    +0.132 C 
ATOM     21  C   UNL     1      96.216 129.251 140.910  0.00  0.00    +0.018 C 
ATOM     22  C   UNL     1      93.510 130.322 141.813  0.00  0.00    +0.032 C 
ATOM     23  C   UNL     1      91.389 129.788 138.936  0.00  0.00    +0.176 C 
ATOM     24  C   UNL     1      92.066 130.430 141.315  0.00  0.00    +0.006 C 
ATOM     25  C   UNL     1      91.765 129.307 140.338  0.00  0.00    +0.045 C 
ENDROOT
BRANCH  23  26
ATOM     26  C   UNL     1      89.884 130.123 138.844  0.00  0.00    +0.041 C 
ATOM     27  C   UNL     1      89.605 131.612 138.655  0.00  0.00    +0.007 C 
ENDBRANCH  23  26
BRANCH  10  28
ATOM     28  O   UNL     1      97.029 133.614 131.442  0.00  0.00    -0.345 OA
BRANCH  28  30
ATOM     29  O   UNL     1      95.846 135.723 131.608  0.00  0.00    -0.343 OA
ATOM     30  C   UNL     1      96.767 134.909 130.882  0.00  0.00    +0.282 C 
ATOM     31  C   UNL     1      96.523 134.932 129.361  0.00  0.00    +0.205 C 
ATOM     32  C   UNL     1      95.070 134.589 129.021  0.00  0.00    +0.179 C 
ATOM     33  C   UNL     1      94.454 135.521 131.378  0.00  0.00    +0.150 C 
ATOM     34  C   UNL     1      94.032 135.320 129.899  0.00  0.00    +0.177 C 
ATOM     35  C   UNL     1      93.722 136.718 131.979  0.00  0.00    +0.041 C 
BRANCH  31  36
ATOM     36  O   UNL     1      96.972 136.141 128.691  0.00  0.00    -0.372 OA
ATOM     37  C   UNL     1      98.149 136.090 127.899  0.00  0.00    +0.194 C 
ENDBRANCH  31  36
BRANCH  32  38
ATOM     38  O   UNL     1      94.828 134.844 127.623  0.00  0.00    -0.386 OA
ATOM     39  H   UNL     1      95.381 134.213 127.120  0.00  0.00    +0.210 HD
ENDBRANCH  32  38
BRANCH  34  40
ATOM     40  O   UNL     1      92.707 134.762 129.751  0.00  0.00    -0.375 OA
ATOM     41  C   UNL     1      91.732 135.548 129.083  0.00  0.00    +0.194 C 
ENDBRANCH  34  40
ENDBRANCH  28  30
ENDBRANCH  10  28
BRANCH  20  42
ATOM     42  O   UNL     1      93.997 132.272 140.354  0.00  0.00    -0.347 OA
BRANCH  42  44
ATOM     43  O   UNL     1      92.888 134.085 141.460  0.00  0.00    -0.347 OA
ATOM     44  C   UNL     1      94.102 133.605 140.896  0.00  0.00    +0.251 C 
ATOM     45  C   UNL     1      94.878 134.493 139.931  0.00  0.00    +0.063 C 
ATOM     46  C   UNL     1      94.013 135.476 139.179  0.00  0.00    +0.026 C 
ATOM     47  C   UNL     1      93.008 136.213 140.066  0.00  0.00    +0.085 C 
ATOM     48  C   UNL     1      92.207 135.238 140.963  0.00  0.00    +0.135 C 
ATOM     49  C   UNL     1      90.857 134.884 140.320  0.00  0.00    +0.039 C 
BRANCH  47  50
ATOM     50  N   UNL     1      93.604 137.379 140.774  0.00  0.00    -0.303 NA
ATOM     51  C   UNL     1      93.335 138.617 140.025  0.00  0.00    +0.105 C 
ATOM     52  C   UNL     1      93.170 137.564 142.160  0.00  0.00    +0.105 C 
ENDBRANCH  47  50
ENDBRANCH  42  44
ENDBRANCH  20  42
TORSDOF 9
ENDMDL
MODEL 19
REMARK VINA RESULT:      -7.3     53.876     60.495
REMARK  Name = 
REMARK  17 active torsions:
REMARK  status: ('A' for Active; 'I' for Inactive)
REMARK    1  A    between atoms: O_1  and  C_18
REMARK    2  A    between atoms: O_1  and  C_26
REMARK    3  A    between atoms: O_5  and  C_30
REMARK    4  A    between atoms: O_5  and  C_40
REMARK    5  A    between atoms: O_6  and  C_29
REMARK    6  A    between atoms: O_6  and  C_43
REMARK    7  A    between atoms: O_8  and  C_31
REMARK    8  A    between atoms: O_9  and  C_34
REMARK    9  A    between atoms: O_9  and  C_48
REMARK   10  A    between atoms: N_11  and  C_45
REMARK   11  A    between atoms: N_11  and  C_50
REMARK   12  A    between atoms: N_11  and  C_51
REMARK   13  A    between atoms: C_27  and  C_33
REMARK   14  A    between atoms: C_32  and  C_39
REMARK   15  A    between atoms: C_36  and  C_41
REMARK   16  A    between atoms: C_41  and  C_47
REMARK   17  A    between atoms: C_46  and  C_49
REMARK                            x       y       z     vdW  Elec       q    Type
REMARK                         _______ _______ _______ _____ _____    ______ ____
ROOT
ATOM      1  O   UNL     1     151.753 112.463 109.900  0.00  0.00    -0.292 OA
ATOM      2  O   UNL     1     148.131 110.171 105.052  0.00  0.00    -0.461 OA
ATOM      3  O   UNL     1     147.292 109.134 106.874  0.00  0.00    -0.251 OA
ATOM      4  C   UNL     1     148.066 109.796 111.689  0.00  0.00    +0.006 C 
ATOM      5  C   UNL     1     148.606 109.918 110.276  0.00  0.00    +0.023 C 
ATOM      6  C   UNL     1     148.958 110.579 112.629  0.00  0.00    +0.018 C 
ATOM      7  C   UNL     1     148.055 111.291 109.784  0.00  0.00    +0.027 C 
ATOM      8  C   UNL     1     147.794 108.423 112.256  0.00  0.00    +0.036 C 
ATOM      9  C   UNL     1     148.524 110.014 113.982  0.00  0.00    +0.039 C 
ATOM     10  C   UNL     1     148.324 108.508 113.680  0.00  0.00    +0.122 C 
ATOM     11  C   UNL     1     148.783 111.276 108.404  0.00  0.00    +0.040 C 
ATOM     12  C   UNL     1     150.112 110.191 109.889  0.00  0.00    -0.015 C 
ATOM     13  C   UNL     1     148.804 112.026 112.180  0.00  0.00    -0.027 C 
ATOM     14  C   UNL     1     148.414 112.356 110.909  0.00  0.00    -0.026 C 
ATOM     15  C   UNL     1     150.192 111.092 108.859  0.00  0.00    -0.004 C 
ATOM     16  C   UNL     1     147.966 111.503 107.101  0.00  0.00    +0.129 C 
ATOM     17  C   UNL     1     151.347 112.047 108.806  0.00  0.00    +0.164 C 
ATOM     18  C   UNL     1     152.006 112.594 107.532  0.00  0.00    +0.086 C 
ATOM     19  C   UNL     1     147.741 110.159 106.351  0.00  0.00    +0.308 C 
ATOM     20  C   UNL     1     152.609 111.621 106.504  0.00  0.00    +0.132 C 
ATOM     21  C   UNL     1     151.401 113.892 107.009  0.00  0.00    +0.018 C 
ATOM     22  C   UNL     1     152.271 111.775 104.997  0.00  0.00    +0.032 C 
ATOM     23  C   UNL     1     149.425 109.555 104.828  0.00  0.00    +0.176 C 
ATOM     24  C   UNL     1     151.713 110.547 104.272  0.00  0.00    +0.006 C 
ATOM     25  C   UNL     1     150.206 110.666 104.127  0.00  0.00    +0.045 C 
ENDROOT
BRANCH  23  26
ATOM     26  C   UNL     1     149.301 108.304 103.929  0.00  0.00    +0.041 C 
ATOM     27  C   UNL     1     148.168 108.400 102.910  0.00  0.00    +0.007 C 
ENDBRANCH  23  26
BRANCH  10  28
ATOM     28  O   UNL     1     147.470 107.911 114.630  0.00  0.00    -0.345 OA
BRANCH  28  30
ATOM     29  O   UNL     1     147.174 105.794 115.773  0.00  0.00    -0.343 OA
ATOM     30  C   UNL     1     147.988 106.947 115.560  0.00  0.00    +0.282 C 
ATOM     31  C   UNL     1     148.558 107.533 116.866  0.00  0.00    +0.205 C 
ATOM     32  C   UNL     1     147.452 107.797 117.892  0.00  0.00    +0.179 C 
ATOM     33  C   UNL     1     146.111 105.894 116.717  0.00  0.00    +0.150 C 
ATOM     34  C   UNL     1     146.442 106.640 118.036  0.00  0.00    +0.177 C 
ATOM     35  C   UNL     1     145.642 104.472 117.016  0.00  0.00    +0.041 C 
BRANCH  31  36
ATOM     36  O   UNL     1     149.666 106.784 117.436  0.00  0.00    -0.372 OA
ATOM     37  C   UNL     1     150.640 106.230 116.564  0.00  0.00    +0.194 C 
ENDBRANCH  31  36
BRANCH  32  38
ATOM     38  O   UNL     1     148.043 108.123 119.166  0.00  0.00    -0.386 OA
ATOM     39  H   UNL     1     147.925 109.085 119.296  0.00  0.00    +0.210 HD
ENDBRANCH  32  38
BRANCH  34  40
ATOM     40  O   UNL     1     145.269 107.034 118.782  0.00  0.00    -0.375 OA
ATOM     41  C   UNL     1     144.980 106.328 119.979  0.00  0.00    +0.194 C 
ENDBRANCH  34  40
ENDBRANCH  28  30
ENDBRANCH  10  28
BRANCH  20  42
ATOM     42  O   UNL     1     152.568 110.288 106.963  0.00  0.00    -0.347 OA
BRANCH  42  44
ATOM     43  O   UNL     1     153.876 108.839 108.353  0.00  0.00    -0.347 OA
ATOM     44  C   UNL     1     153.863 109.710 107.229  0.00  0.00    +0.251 C 
ATOM     45  C   UNL     1     154.940 110.782 107.106  0.00  0.00    +0.063 C 
ATOM     46  C   UNL     1     155.498 111.240 108.431  0.00  0.00    +0.026 C 
ATOM     47  C   UNL     1     155.839 110.093 109.383  0.00  0.00    +0.085 C 
ATOM     48  C   UNL     1     154.670 109.086 109.515  0.00  0.00    +0.135 C 
ATOM     49  C   UNL     1     153.813 109.398 110.751  0.00  0.00    +0.039 C 
BRANCH  47  50
ATOM     50  N   UNL     1     157.169 109.484 109.107  0.00  0.00    -0.303 NA
ATOM     51  C   UNL     1     158.068 109.691 110.255  0.00  0.00    +0.105 C 
ATOM     52  C   UNL     1     157.154 108.059 108.772  0.00  0.00    +0.105 C 
ENDBRANCH  47  50
ENDBRANCH  42  44
ENDBRANCH  20  42
TORSDOF 9
ENDMDL
MODEL 20
REMARK VINA RESULT:      -7.3    105.248    108.604
REMARK  Name = 
REMARK  17 active torsions:
REMARK  status: ('A' for Active; 'I' for Inactive)
REMARK    1  A    between atoms: O_1  and  C_18
REMARK    2  A    between atoms: O_1  and  C_26
REMARK    3  A    between atoms: O_5  and  C_30
REMARK    4  A    between atoms: O_5  and  C_40
REMARK    5  A    between atoms: O_6  and  C_29
REMARK    6  A    between atoms: O_6  and  C_43
REMARK    7  A    between atoms: O_8  and  C_31
REMARK    8  A    between atoms: O_9  and  C_34
REMARK    9  A    between atoms: O_9  and  C_48
REMARK   10  A    between atoms: N_11  and  C_45
REMARK   11  A    between atoms: N_11  and  C_50
REMARK   12  A    between atoms: N_11  and  C_51
REMARK   13  A    between atoms: C_27  and  C_33
REMARK   14  A    between atoms: C_32  and  C_39
REMARK   15  A    between atoms: C_36  and  C_41
REMARK   16  A    between atoms: C_41  and  C_47
REMARK   17  A    between atoms: C_46  and  C_49
REMARK                            x       y       z     vdW  Elec       q    Type
REMARK                         _______ _______ _______ _____ _____    ______ ____
ROOT
ATOM      1  O   UNL     1     115.315 123.137 157.886  0.00  0.00    -0.292 OA
ATOM      2  O   UNL     1     115.003 120.820 163.919  0.00  0.00    -0.461 OA
ATOM      3  O   UNL     1     113.129 122.066 163.735  0.00  0.00    -0.251 OA
ATOM      4  C   UNL     1     110.986 124.239 159.874  0.00  0.00    +0.006 C 
ATOM      5  C   UNL     1     112.265 123.727 160.508  0.00  0.00    +0.023 C 
ATOM      6  C   UNL     1     111.240 124.526 158.410  0.00  0.00    +0.018 C 
ATOM      7  C   UNL     1     112.288 122.214 160.133  0.00  0.00    +0.027 C 
ATOM      8  C   UNL     1     110.263 125.401 160.512  0.00  0.00    +0.036 C 
ATOM      9  C   UNL     1     110.025 125.388 158.065  0.00  0.00    +0.039 C 
ATOM     10  C   UNL     1     109.855 126.267 159.329  0.00  0.00    +0.122 C 
ATOM     11  C   UNL     1     113.682 121.908 160.765  0.00  0.00    +0.040 C 
ATOM     12  C   UNL     1     113.729 124.048 160.010  0.00  0.00    -0.015 C 
ATOM     13  C   UNL     1     111.563 123.165 157.807  0.00  0.00    -0.027 C 
ATOM     14  C   UNL     1     112.043 122.130 158.564  0.00  0.00    -0.026 C 
ATOM     15  C   UNL     1     114.514 122.924 160.057  0.00  0.00    -0.004 C 
ATOM     16  C   UNL     1     113.828 120.733 161.772  0.00  0.00    +0.129 C 
ATOM     17  C   UNL     1     115.585 122.732 159.025  0.00  0.00    +0.164 C 
ATOM     18  C   UNL     1     116.932 122.027 159.244  0.00  0.00    +0.086 C 
ATOM     19  C   UNL     1     113.924 121.267 163.230  0.00  0.00    +0.308 C 
ATOM     20  C   UNL     1     117.897 122.541 160.325  0.00  0.00    +0.132 C 
ATOM     21  C   UNL     1     116.920 120.529 158.958  0.00  0.00    +0.018 C 
ATOM     22  C   UNL     1     118.537 121.549 161.332  0.00  0.00    +0.032 C 
ATOM     23  C   UNL     1     116.090 121.779 163.981  0.00  0.00    +0.176 C 
ATOM     24  C   UNL     1     118.367 121.851 162.824  0.00  0.00    +0.006 C 
ATOM     25  C   UNL     1     117.266 120.986 163.410  0.00  0.00    +0.045 C 
ENDROOT
BRANCH  23  26
ATOM     26  C   UNL     1     116.367 122.220 165.437  0.00  0.00    +0.041 C 
ATOM     27  C   UNL     1     116.123 121.113 166.461  0.00  0.00    +0.007 C 
ENDBRANCH  23  26
BRANCH  10  28
ATOM     28  O   UNL     1     108.539 126.763 159.427  0.00  0.00    -0.345 OA
BRANCH  28  30
ATOM     29  O   UNL     1     108.779 128.447 161.154  0.00  0.00    -0.343 OA
ATOM     30  C   UNL     1     108.308 128.116 159.848  0.00  0.00    +0.282 C 
ATOM     31  C   UNL     1     106.897 128.663 159.559  0.00  0.00    +0.205 C 
ATOM     32  C   UNL     1     105.901 128.249 160.646  0.00  0.00    +0.179 C 
ATOM     33  C   UNL     1     107.943 128.131 162.264  0.00  0.00    +0.150 C 
ATOM     34  C   UNL     1     106.432 128.430 162.083  0.00  0.00    +0.177 C 
ATOM     35  C   UNL     1     108.493 128.888 163.470  0.00  0.00    +0.041 C 
BRANCH  31  36
ATOM     36  O   UNL     1     106.842 130.089 159.281  0.00  0.00    -0.372 OA
ATOM     37  C   UNL     1     107.924 130.695 158.589  0.00  0.00    +0.194 C 
ENDBRANCH  31  36
BRANCH  32  38
ATOM     38  O   UNL     1     104.662 128.963 160.464  0.00  0.00    -0.386 OA
ATOM     39  H   UNL     1     104.505 129.472 161.285  0.00  0.00    +0.210 HD
ENDBRANCH  32  38
BRANCH  34  40
ATOM     40  O   UNL     1     105.595 127.767 163.058  0.00  0.00    -0.375 OA
ATOM     41  C   UNL     1     104.904 128.580 163.995  0.00  0.00    +0.194 C 
ENDBRANCH  34  40
ENDBRANCH  28  30
ENDBRANCH  10  28
BRANCH  20  42
ATOM     42  O   UNL     1     117.427 123.732 160.919  0.00  0.00    -0.347 OA
BRANCH  42  44
ATOM     43  O   UNL     1     119.126 125.355 161.387  0.00  0.00    -0.347 OA
ATOM     44  C   UNL     1     118.113 124.924 160.486  0.00  0.00    +0.251 C 
ATOM     45  C   UNL     1     117.103 125.938 159.962  0.00  0.00    +0.063 C 
ATOM     46  C   UNL     1     116.861 127.097 160.898  0.00  0.00    +0.026 C 
ATOM     47  C   UNL     1     118.144 127.704 161.468  0.00  0.00    +0.085 C 
ATOM     48  C   UNL     1     119.085 126.620 162.049  0.00  0.00    +0.135 C 
ATOM     49  C   UNL     1     118.889 126.479 163.566  0.00  0.00    +0.039 C 
BRANCH  47  50
ATOM     50  N   UNL     1     118.791 128.672 160.540  0.00  0.00    -0.303 NA
ATOM     51  C   UNL     1     119.167 129.895 161.269  0.00  0.00    +0.105 C 
ATOM     52  C   UNL     1     119.966 128.172 159.825  0.00  0.00    +0.105 C 
ENDBRANCH  47  50
ENDBRANCH  42  44
ENDBRANCH  20  42
TORSDOF 9
ENDMDL
