MODEL 1
REMARK VINA RESULT:      -8.9      0.000      0.000
REMARK  Name = 
REMARK  18 active torsions:
REMARK  status: ('A' for Active; 'I' for Inactive)
REMARK    1  A    between atoms: O_1  and  C_18
REMARK    2  A    between atoms: O_1  and  C_26
REMARK    3  A    between atoms: O_5  and  C_29
REMARK    4  A    between atoms: O_5  and  C_43
REMARK    5  A    between atoms: O_6  and  C_30
REMARK    6  A    between atoms: O_6  and  C_40
REMARK    7  A    between atoms: O_8  and  C_31
REMARK    8  A    between atoms: O_8  and  C_47
REMARK    9  A    between atoms: O_9  and  C_32
REMARK   10  A    between atoms: O_9  and  C_49
REMARK   11  A    between atoms: N_11  and  C_45
REMARK   12  A    between atoms: N_11  and  C_51
REMARK   13  A    between atoms: N_11  and  C_52
REMARK   14  A    between atoms: C_27  and  C_34
REMARK   15  A    between atoms: C_33  and  C_39
REMARK   16  A    between atoms: C_36  and  C_41
REMARK   17  A    between atoms: C_41  and  C_48
REMARK   18  A    between atoms: C_46  and  C_50
REMARK                            x       y       z     vdW  Elec       q    Type
REMARK                         _______ _______ _______ _____ _____    ______ ____
ROOT
ATOM      1  O   UNL     1     131.106 121.013 157.435  0.00  0.00    -0.292 OA
ATOM      2  O   UNL     1     135.058 125.654 159.702  0.00  0.00    -0.461 OA
ATOM      3  O   UNL     1     133.634 126.828 158.387  0.00  0.00    -0.251 OA
ATOM      4  C   UNL     1     129.591 125.403 155.957  0.00  0.00    +0.006 C 
ATOM      5  C   UNL     1     130.902 124.978 156.594  0.00  0.00    +0.023 C 
ATOM      6  C   UNL     1     128.739 124.180 155.712  0.00  0.00    +0.018 C 
ATOM      7  C   UNL     1     130.558 124.816 158.104  0.00  0.00    +0.027 C 
ATOM      8  C   UNL     1     129.633 126.257 154.713  0.00  0.00    +0.036 C 
ATOM      9  C   UNL     1     127.712 124.728 154.722  0.00  0.00    +0.039 C 
ATOM     10  C   UNL     1     128.572 125.643 153.812  0.00  0.00    +0.122 C 
ATOM     11  C   UNL     1     131.963 124.283 158.530  0.00  0.00    +0.040 C 
ATOM     12  C   UNL     1     131.586 123.567 156.414  0.00  0.00    -0.015 C 
ATOM     13  C   UNL     1     128.446 123.643 157.114  0.00  0.00    -0.027 C 
ATOM     14  C   UNL     1     129.256 123.921 158.179  0.00  0.00    -0.026 C 
ATOM     15  C   UNL     1     132.097 123.114 157.604  0.00  0.00    -0.004 C 
ATOM     16  C   UNL     1     132.707 124.955 159.710  0.00  0.00    +0.129 C 
ATOM     17  C   UNL     1     132.071 121.649 157.892  0.00  0.00    +0.164 C 
ATOM     18  C   UNL     1     133.099 120.872 158.744  0.00  0.00    +0.086 C 
ATOM     19  C   UNL     1     133.827 125.916 159.193  0.00  0.00    +0.308 C 
ATOM     20  C   UNL     1     134.590 120.854 158.335  0.00  0.00    +0.132 C 
ATOM     21  C   UNL     1     132.782 120.789 160.230  0.00  0.00    +0.018 C 
ATOM     22  C   UNL     1     135.690 121.176 159.368  0.00  0.00    +0.032 C 
ATOM     23  C   UNL     1     135.884 124.789 158.878  0.00  0.00    +0.176 C 
ATOM     24  C   UNL     1     136.623 122.345 159.054  0.00  0.00    +0.006 C 
ATOM     25  C   UNL     1     136.168 123.594 159.789  0.00  0.00    +0.045 C 
ENDROOT
BRANCH  23  26
ATOM     26  C   UNL     1     137.189 125.513 158.477  0.00  0.00    +0.041 C 
ATOM     27  C   UNL     1     136.989 126.567 157.392  0.00  0.00    +0.007 C 
ENDBRANCH  23  26
BRANCH  10  28
ATOM     28  O   UNL     1     127.779 126.609 153.156  0.00  0.00    -0.345 OA
BRANCH  28  30
ATOM     29  O   UNL     1     127.031 125.339 151.228  0.00  0.00    -0.343 OA
ATOM     30  C   UNL     1     126.690 126.211 152.308  0.00  0.00    +0.282 C 
ATOM     31  C   UNL     1     125.711 127.332 151.882  0.00  0.00    +0.205 C 
ATOM     32  C   UNL     1     126.310 128.125 150.706  0.00  0.00    +0.183 C 
ATOM     33  C   UNL     1     126.804 127.228 149.548  0.00  0.00    +0.178 C 
ATOM     34  C   UNL     1     127.513 125.926 150.021  0.00  0.00    +0.150 C 
ATOM     35  C   UNL     1     127.439 124.851 148.941  0.00  0.00    +0.041 C 
BRANCH  31  36
ATOM     36  O   UNL     1     124.356 126.860 151.692  0.00  0.00    -0.372 OA
ATOM     37  C   UNL     1     123.324 127.312 152.552  0.00  0.00    +0.194 C 
ENDBRANCH  31  36
BRANCH  32  38
ATOM     38  O   UNL     1     125.560 129.289 150.312  0.00  0.00    -0.374 OA
ATOM     39  C   UNL     1     125.310 130.283 151.288  0.00  0.00    +0.194 C 
ENDBRANCH  32  38
BRANCH  33  40
ATOM     40  O   UNL     1     127.566 127.966 148.567  0.00  0.00    -0.375 OA
ATOM     41  C   UNL     1     126.991 128.136 147.279  0.00  0.00    +0.194 C 
ENDBRANCH  33  40
ENDBRANCH  28  30
ENDBRANCH  10  28
BRANCH  20  42
ATOM     42  O   UNL     1     134.773 121.508 157.091  0.00  0.00    -0.347 OA
BRANCH  42  44
ATOM     43  O   UNL     1     135.565 119.354 156.409  0.00  0.00    -0.347 OA
ATOM     44  C   UNL     1     135.077 120.623 155.995  0.00  0.00    +0.251 C 
ATOM     45  C   UNL     1     135.827 121.396 154.916  0.00  0.00    +0.063 C 
ATOM     46  C   UNL     1     137.298 121.068 154.844  0.00  0.00    +0.026 C 
ATOM     47  C   UNL     1     137.599 119.569 154.894  0.00  0.00    +0.085 C 
ATOM     48  C   UNL     1     136.868 118.877 156.069  0.00  0.00    +0.135 C 
ATOM     49  C   UNL     1     137.784 118.764 157.297  0.00  0.00    +0.039 C 
BRANCH  47  50
ATOM     50  N   UNL     1     137.448 118.899 153.574  0.00  0.00    -0.303 NA
ATOM     51  C   UNL     1     137.563 119.888 152.490  0.00  0.00    +0.105 C 
ATOM     52  C   UNL     1     138.378 117.799 153.312  0.00  0.00    +0.105 C 
ENDBRANCH  47  50
ENDBRANCH  42  44
ENDBRANCH  20  42
TORSDOF 9
ENDMDL
MODEL 2
REMARK VINA RESULT:      -8.6      4.827      6.461
REMARK  Name = 
REMARK  18 active torsions:
REMARK  status: ('A' for Active; 'I' for Inactive)
REMARK    1  A    between atoms: O_1  and  C_18
REMARK    2  A    between atoms: O_1  and  C_26
REMARK    3  A    between atoms: O_5  and  C_29
REMARK    4  A    between atoms: O_5  and  C_43
REMARK    5  A    between atoms: O_6  and  C_30
REMARK    6  A    between atoms: O_6  and  C_40
REMARK    7  A    between atoms: O_8  and  C_31
REMARK    8  A    between atoms: O_8  and  C_47
REMARK    9  A    between atoms: O_9  and  C_32
REMARK   10  A    between atoms: O_9  and  C_49
REMARK   11  A    between atoms: N_11  and  C_45
REMARK   12  A    between atoms: N_11  and  C_51
REMARK   13  A    between atoms: N_11  and  C_52
REMARK   14  A    between atoms: C_27  and  C_34
REMARK   15  A    between atoms: C_33  and  C_39
REMARK   16  A    between atoms: C_36  and  C_41
REMARK   17  A    between atoms: C_41  and  C_48
REMARK   18  A    between atoms: C_46  and  C_50
REMARK                            x       y       z     vdW  Elec       q    Type
REMARK                         _______ _______ _______ _____ _____    ______ ____
ROOT
ATOM      1  O   UNL     1     133.255 119.215 160.377  0.00  0.00    -0.292 OA
ATOM      2  O   UNL     1     134.023 125.631 159.643  0.00  0.00    -0.461 OA
ATOM      3  O   UNL     1     131.989 125.275 158.709  0.00  0.00    -0.251 OA
ATOM      4  C   UNL     1     129.229 121.199 158.479  0.00  0.00    +0.006 C 
ATOM      5  C   UNL     1     130.621 121.778 158.656  0.00  0.00    +0.023 C 
ATOM      6  C   UNL     1     129.235 119.753 158.913  0.00  0.00    +0.018 C 
ATOM      7  C   UNL     1     130.693 122.148 160.168  0.00  0.00    +0.027 C 
ATOM      8  C   UNL     1     128.555 121.331 157.135  0.00  0.00    +0.036 C 
ATOM      9  C   UNL     1     127.937 119.250 158.282  0.00  0.00    +0.039 C 
ATOM     10  C   UNL     1     127.929 119.963 156.905  0.00  0.00    +0.122 C 
ATOM     11  C   UNL     1     132.188 122.597 160.150  0.00  0.00    +0.040 C 
ATOM     12  C   UNL     1     131.964 120.950 158.611  0.00  0.00    -0.015 C 
ATOM     13  C   UNL     1     129.549 119.812 160.409  0.00  0.00    -0.027 C 
ATOM     14  C   UNL     1     130.201 120.876 160.969  0.00  0.00    -0.026 C 
ATOM     15  C   UNL     1     132.830 121.366 159.590  0.00  0.00    -0.004 C 
ATOM     16  C   UNL     1     132.575 123.979 160.732  0.00  0.00    +0.129 C 
ATOM     17  C   UNL     1     133.719 120.360 160.245  0.00  0.00    +0.164 C 
ATOM     18  C   UNL     1     135.130 120.629 160.813  0.00  0.00    +0.086 C 
ATOM     19  C   UNL     1     132.811 125.022 159.592  0.00  0.00    +0.308 C 
ATOM     20  C   UNL     1     136.253 121.149 159.888  0.00  0.00    +0.132 C 
ATOM     21  C   UNL     1     135.173 121.061 162.272  0.00  0.00    +0.018 C 
ATOM     22  C   UNL     1     137.105 122.370 160.297  0.00  0.00    +0.032 C 
ATOM     23  C   UNL     1     135.050 125.007 158.828  0.00  0.00    +0.176 C 
ATOM     24  C   UNL     1     137.103 123.571 159.352  0.00  0.00    +0.006 C 
ATOM     25  C   UNL     1     136.129 124.627 159.844  0.00  0.00    +0.045 C 
ENDROOT
BRANCH  23  26
ATOM     26  C   UNL     1     135.592 126.008 157.783  0.00  0.00    +0.041 C 
ATOM     27  C   UNL     1     135.147 125.696 156.357  0.00  0.00    +0.007 C 
ENDBRANCH  23  26
BRANCH  10  28
ATOM     28  O   UNL     1     126.625 120.037 156.369  0.00  0.00    -0.345 OA
BRANCH  28  30
ATOM     29  O   UNL     1     125.406 118.175 155.402  0.00  0.00    -0.343 OA
ATOM     30  C   UNL     1     126.272 119.292 155.193  0.00  0.00    +0.282 C 
ATOM     31  C   UNL     1     127.428 118.974 154.214  0.00  0.00    +0.205 C 
ATOM     32  C   UNL     1     128.219 117.755 154.724  0.00  0.00    +0.183 C 
ATOM     33  C   UNL     1     127.324 116.545 155.077  0.00  0.00    +0.178 C 
ATOM     34  C   UNL     1     125.995 116.934 155.786  0.00  0.00    +0.150 C 
ATOM     35  C   UNL     1     124.937 115.854 155.576  0.00  0.00    +0.041 C 
BRANCH  31  36
ATOM     36  O   UNL     1     127.000 118.908 152.833  0.00  0.00    -0.372 OA
ATOM     37  C   UNL     1     127.645 119.707 151.855  0.00  0.00    +0.194 C 
ENDBRANCH  31  36
BRANCH  32  38
ATOM     38  O   UNL     1     129.411 117.448 153.977  0.00  0.00    -0.374 OA
ATOM     39  C   UNL     1     129.316 116.497 152.932  0.00  0.00    +0.194 C 
ENDBRANCH  32  38
BRANCH  33  40
ATOM     40  O   UNL     1     128.052 115.504 155.766  0.00  0.00    -0.375 OA
ATOM     41  C   UNL     1     128.599 115.817 157.039  0.00  0.00    +0.194 C 
ENDBRANCH  33  40
ENDBRANCH  28  30
ENDBRANCH  10  28
BRANCH  20  42
ATOM     42  O   UNL     1     135.809 121.195 158.543  0.00  0.00    -0.347 OA
BRANCH  42  44
ATOM     43  O   UNL     1     137.483 121.263 156.830  0.00  0.00    -0.347 OA
ATOM     44  C   UNL     1     136.629 120.447 157.622  0.00  0.00    +0.251 C 
ATOM     45  C   UNL     1     135.780 119.377 156.946  0.00  0.00    +0.063 C 
ATOM     46  C   UNL     1     135.443 119.687 155.508  0.00  0.00    +0.026 C 
ATOM     47  C   UNL     1     136.638 120.180 154.687  0.00  0.00    +0.085 C 
ATOM     48  C   UNL     1     137.393 121.324 155.407  0.00  0.00    +0.135 C 
ATOM     49  C   UNL     1     136.911 122.697 154.913  0.00  0.00    +0.039 C 
BRANCH  47  50
ATOM     50  N   UNL     1     137.497 119.074 154.185  0.00  0.00    -0.303 NA
ATOM     51  C   UNL     1     137.792 119.272 152.757  0.00  0.00    +0.105 C 
ATOM     52  C   UNL     1     138.757 118.875 154.905  0.00  0.00    +0.105 C 
ENDBRANCH  47  50
ENDBRANCH  42  44
ENDBRANCH  20  42
TORSDOF 9
ENDMDL
MODEL 3
REMARK VINA RESULT:      -8.3     26.839     33.212
REMARK  Name = 
REMARK  18 active torsions:
REMARK  status: ('A' for Active; 'I' for Inactive)
REMARK    1  A    between atoms: O_1  and  C_18
REMARK    2  A    between atoms: O_1  and  C_26
REMARK    3  A    between atoms: O_5  and  C_29
REMARK    4  A    between atoms: O_5  and  C_43
REMARK    5  A    between atoms: O_6  and  C_30
REMARK    6  A    between atoms: O_6  and  C_40
REMARK    7  A    between atoms: O_8  and  C_31
REMARK    8  A    between atoms: O_8  and  C_47
REMARK    9  A    between atoms: O_9  and  C_32
REMARK   10  A    between atoms: O_9  and  C_49
REMARK   11  A    between atoms: N_11  and  C_45
REMARK   12  A    between atoms: N_11  and  C_51
REMARK   13  A    between atoms: N_11  and  C_52
REMARK   14  A    between atoms: C_27  and  C_34
REMARK   15  A    between atoms: C_33  and  C_39
REMARK   16  A    between atoms: C_36  and  C_41
REMARK   17  A    between atoms: C_41  and  C_48
REMARK   18  A    between atoms: C_46  and  C_50
REMARK                            x       y       z     vdW  Elec       q    Type
REMARK                         _______ _______ _______ _____ _____    ______ ____
ROOT
ATOM      1  O   UNL     1     121.847 109.109 128.406  0.00  0.00    -0.292 OA
ATOM      2  O   UNL     1     121.013 112.690 123.041  0.00  0.00    -0.461 OA
ATOM      3  O   UNL     1     119.949 113.922 124.618  0.00  0.00    -0.251 OA
ATOM      4  C   UNL     1     119.625 113.308 129.496  0.00  0.00    +0.006 C 
ATOM      5  C   UNL     1     119.885 112.653 128.152  0.00  0.00    +0.023 C 
ATOM      6  C   UNL     1     120.093 112.384 130.596  0.00  0.00    +0.018 C 
ATOM      7  C   UNL     1     121.389 112.945 127.868  0.00  0.00    +0.027 C 
ATOM      8  C   UNL     1     118.235 113.808 129.802  0.00  0.00    +0.036 C 
ATOM      9  C   UNL     1     119.386 112.987 131.809  0.00  0.00    +0.039 C 
ATOM     10  C   UNL     1     117.995 113.367 131.238  0.00  0.00    +0.122 C 
ATOM     11  C   UNL     1     121.464 112.114 126.548  0.00  0.00    +0.040 C 
ATOM     12  C   UNL     1     119.954 111.097 127.895  0.00  0.00    -0.015 C 
ATOM     13  C   UNL     1     121.605 112.290 130.386  0.00  0.00    -0.027 C 
ATOM     14  C   UNL     1     122.184 112.535 129.172  0.00  0.00    -0.026 C 
ATOM     15  C   UNL     1     120.980 110.785 127.040  0.00  0.00    -0.004 C 
ATOM     16  C   UNL     1     122.038 112.770 125.267  0.00  0.00    +0.129 C 
ATOM     17  C   UNL     1     121.719 109.502 127.233  0.00  0.00    +0.164 C 
ATOM     18  C   UNL     1     122.378 108.657 126.122  0.00  0.00    +0.086 C 
ATOM     19  C   UNL     1     120.892 113.198 124.294  0.00  0.00    +0.308 C 
ATOM     20  C   UNL     1     121.520 108.090 124.967  0.00  0.00    +0.132 C 
ATOM     21  C   UNL     1     123.826 109.008 125.808  0.00  0.00    +0.018 C 
ATOM     22  C   UNL     1     121.959 108.279 123.498  0.00  0.00    +0.032 C 
ATOM     23  C   UNL     1     120.287 111.453 122.816  0.00  0.00    +0.176 C 
ATOM     24  C   UNL     1     120.987 109.003 122.567  0.00  0.00    +0.006 C 
ATOM     25  C   UNL     1     121.384 110.462 122.424  0.00  0.00    +0.045 C 
ENDROOT
BRANCH  23  26
ATOM     26  C   UNL     1     119.258 111.631 121.677  0.00  0.00    +0.041 C 
ATOM     27  C   UNL     1     119.862 112.208 120.400  0.00  0.00    +0.007 C 
ENDBRANCH  23  26
BRANCH  10  28
ATOM     28  O   UNL     1     117.368 114.359 132.023  0.00  0.00    -0.345 OA
BRANCH  28  30
ATOM     29  O   UNL     1     114.991 114.308 132.509  0.00  0.00    -0.343 OA
ATOM     30  C   UNL     1     116.321 114.012 132.943  0.00  0.00    +0.282 C 
ATOM     31  C   UNL     1     116.560 114.388 134.425  0.00  0.00    +0.205 C 
ATOM     32  C   UNL     1     116.232 115.876 134.643  0.00  0.00    +0.183 C 
ATOM     33  C   UNL     1     114.847 116.287 134.091  0.00  0.00    +0.178 C 
ATOM     34  C   UNL     1     114.494 115.627 132.728  0.00  0.00    +0.150 C 
ATOM     35  C   UNL     1     112.982 115.572 132.532  0.00  0.00    +0.041 C 
BRANCH  31  36
ATOM     36  O   UNL     1     115.936 113.468 135.352  0.00  0.00    -0.372 OA
ATOM     37  C   UNL     1     116.741 112.633 136.168  0.00  0.00    +0.194 C 
ENDBRANCH  31  36
BRANCH  32  38
ATOM     38  O   UNL     1     116.554 116.385 135.950  0.00  0.00    -0.374 OA
ATOM     39  C   UNL     1     117.889 116.258 136.405  0.00  0.00    +0.194 C 
ENDBRANCH  32  38
BRANCH  33  40
ATOM     40  O   UNL     1     114.656 117.719 134.095  0.00  0.00    -0.375 OA
ATOM     41  C   UNL     1     113.729 118.256 135.029  0.00  0.00    +0.194 C 
ENDBRANCH  33  40
ENDBRANCH  28  30
ENDBRANCH  10  28
BRANCH  20  42
ATOM     42  O   UNL     1     120.147 108.363 125.186  0.00  0.00    -0.347 OA
BRANCH  42  44
ATOM     43  O   UNL     1     117.957 107.468 125.560  0.00  0.00    -0.347 OA
ATOM     44  C   UNL     1     119.348 107.194 125.463  0.00  0.00    +0.251 C 
ATOM     45  C   UNL     1     120.025 106.367 126.550  0.00  0.00    +0.063 C 
ATOM     46  C   UNL     1     119.342 106.454 127.893  0.00  0.00    +0.026 C 
ATOM     47  C   UNL     1     117.820 106.309 127.822  0.00  0.00    +0.085 C 
ATOM     48  C   UNL     1     117.205 107.245 126.754  0.00  0.00    +0.135 C 
ATOM     49  C   UNL     1     116.718 108.557 127.388  0.00  0.00    +0.039 C 
BRANCH  47  50
ATOM     50  N   UNL     1     117.372 104.891 127.753  0.00  0.00    -0.303 NA
ATOM     51  C   UNL     1     118.154 104.068 128.689  0.00  0.00    +0.105 C 
ATOM     52  C   UNL     1     115.946 104.666 128.002  0.00  0.00    +0.105 C 
ENDBRANCH  47  50
ENDBRANCH  42  44
ENDBRANCH  20  42
TORSDOF 9
ENDMDL
MODEL 4
REMARK VINA RESULT:      -8.3     34.228     37.615
REMARK  Name = 
REMARK  18 active torsions:
REMARK  status: ('A' for Active; 'I' for Inactive)
REMARK    1  A    between atoms: O_1  and  C_18
REMARK    2  A    between atoms: O_1  and  C_26
REMARK    3  A    between atoms: O_5  and  C_29
REMARK    4  A    between atoms: O_5  and  C_43
REMARK    5  A    between atoms: O_6  and  C_30
REMARK    6  A    between atoms: O_6  and  C_40
REMARK    7  A    between atoms: O_8  and  C_31
REMARK    8  A    between atoms: O_8  and  C_47
REMARK    9  A    between atoms: O_9  and  C_32
REMARK   10  A    between atoms: O_9  and  C_49
REMARK   11  A    between atoms: N_11  and  C_45
REMARK   12  A    between atoms: N_11  and  C_51
REMARK   13  A    between atoms: N_11  and  C_52
REMARK   14  A    between atoms: C_27  and  C_34
REMARK   15  A    between atoms: C_33  and  C_39
REMARK   16  A    between atoms: C_36  and  C_41
REMARK   17  A    between atoms: C_41  and  C_48
REMARK   18  A    between atoms: C_46  and  C_50
REMARK                            x       y       z     vdW  Elec       q    Type
REMARK                         _______ _______ _______ _____ _____    ______ ____
ROOT
ATOM      1  O   UNL     1     112.304 120.684 127.823  0.00  0.00    -0.292 OA
ATOM      2  O   UNL     1     111.230 116.385 123.062  0.00  0.00    -0.461 OA
ATOM      3  O   UNL     1     112.342 118.037 121.983  0.00  0.00    -0.251 OA
ATOM      4  C   UNL     1     114.467 122.136 123.705  0.00  0.00    +0.006 C 
ATOM      5  C   UNL     1     113.436 121.048 123.943  0.00  0.00    +0.023 C 
ATOM      6  C   UNL     1     114.721 122.872 125.000  0.00  0.00    +0.018 C 
ATOM      7  C   UNL     1     114.256 119.869 124.546  0.00  0.00    +0.027 C 
ATOM      8  C   UNL     1     114.234 123.125 122.589  0.00  0.00    +0.036 C 
ATOM      9  C   UNL     1     115.411 124.137 124.491  0.00  0.00    +0.039 C 
ATOM     10  C   UNL     1     114.615 124.464 123.202  0.00  0.00    +0.122 C 
ATOM     11  C   UNL     1     113.028 118.942 124.811  0.00  0.00    +0.040 C 
ATOM     12  C   UNL     1     112.321 121.080 125.059  0.00  0.00    -0.015 C 
ATOM     13  C   UNL     1     115.335 121.813 125.917  0.00  0.00    -0.027 C 
ATOM     14  C   UNL     1     115.126 120.476 125.719  0.00  0.00    -0.026 C 
ATOM     15  C   UNL     1     112.184 119.850 125.651  0.00  0.00    -0.004 C 
ATOM     16  C   UNL     1     113.047 117.485 124.288  0.00  0.00    +0.129 C 
ATOM     17  C   UNL     1     111.845 119.779 127.104  0.00  0.00    +0.164 C 
ATOM     18  C   UNL     1     111.027 118.665 127.793  0.00  0.00    +0.086 C 
ATOM     19  C   UNL     1     112.188 117.343 122.989  0.00  0.00    +0.308 C 
ATOM     20  C   UNL     1     109.573 118.383 127.350  0.00  0.00    +0.132 C 
ATOM     21  C   UNL     1     111.839 117.487 128.310  0.00  0.00    +0.018 C 
ATOM     22  C   UNL     1     109.114 116.943 127.034  0.00  0.00    +0.032 C 
ATOM     23  C   UNL     1     109.922 116.864 123.474  0.00  0.00    +0.176 C 
ATOM     24  C   UNL     1     108.562 116.678 125.634  0.00  0.00    +0.006 C 
ATOM     25  C   UNL     1     109.637 116.071 124.750  0.00  0.00    +0.045 C 
ENDROOT
BRANCH  23  26
ATOM     26  C   UNL     1     108.871 116.567 122.381  0.00  0.00    +0.041 C 
ATOM     27  C   UNL     1     108.507 115.089 122.276  0.00  0.00    +0.007 C 
ENDBRANCH  23  26
BRANCH  10  28
ATOM     28  O   UNL     1     115.363 125.279 122.326  0.00  0.00    -0.345 OA
BRANCH  28  30
ATOM     29  O   UNL     1     115.598 127.225 120.894  0.00  0.00    -0.343 OA
ATOM     30  C   UNL     1     114.899 126.591 121.968  0.00  0.00    +0.282 C 
ATOM     31  C   UNL     1     114.608 127.557 123.141  0.00  0.00    +0.205 C 
ATOM     32  C   UNL     1     115.925 128.181 123.639  0.00  0.00    +0.183 C 
ATOM     33  C   UNL     1     116.784 128.787 122.505  0.00  0.00    +0.178 C 
ATOM     34  C   UNL     1     116.795 127.935 121.203  0.00  0.00    +0.150 C 
ATOM     35  C   UNL     1     117.122 128.806 119.993  0.00  0.00    +0.041 C 
BRANCH  31  36
ATOM     36  O   UNL     1     113.542 128.493 122.855  0.00  0.00    -0.372 OA
ATOM     37  C   UNL     1     112.446 128.610 123.748  0.00  0.00    +0.194 C 
ENDBRANCH  31  36
BRANCH  32  38
ATOM     38  O   UNL     1     115.806 128.987 124.825  0.00  0.00    -0.374 OA
ATOM     39  C   UNL     1     115.702 128.327 126.073  0.00  0.00    +0.194 C 
ENDBRANCH  32  38
BRANCH  33  40
ATOM     40  O   UNL     1     118.107 129.155 122.954  0.00  0.00    -0.375 OA
ATOM     41  C   UNL     1     119.024 128.105 123.229  0.00  0.00    +0.194 C 
ENDBRANCH  33  40
ENDBRANCH  28  30
ENDBRANCH  10  28
BRANCH  20  42
ATOM     42  O   UNL     1     109.152 119.335 126.388  0.00  0.00    -0.347 OA
BRANCH  42  44
ATOM     43  O   UNL     1     107.491 119.927 128.009  0.00  0.00    -0.347 OA
ATOM     44  C   UNL     1     108.281 120.359 126.909  0.00  0.00    +0.251 C 
ATOM     45  C   UNL     1     107.614 121.091 125.750  0.00  0.00    +0.063 C 
ATOM     46  C   UNL     1     106.156 120.741 125.570  0.00  0.00    +0.026 C 
ATOM     47  C   UNL     1     105.358 120.731 126.876  0.00  0.00    +0.085 C 
ATOM     48  C   UNL     1     106.064 119.896 127.972  0.00  0.00    +0.135 C 
ATOM     49  C   UNL     1     105.512 118.463 128.011  0.00  0.00    +0.039 C 
BRANCH  47  50
ATOM     50  N   UNL     1     104.918 122.088 127.301  0.00  0.00    -0.303 NA
ATOM     51  C   UNL     1     104.130 122.721 126.232  0.00  0.00    +0.105 C 
ATOM     52  C   UNL     1     104.153 122.142 128.548  0.00  0.00    +0.105 C 
ENDBRANCH  47  50
ENDBRANCH  42  44
ENDBRANCH  20  42
TORSDOF 9
ENDMDL
MODEL 5
REMARK VINA RESULT:      -8.3     26.827     35.404
REMARK  Name = 
REMARK  18 active torsions:
REMARK  status: ('A' for Active; 'I' for Inactive)
REMARK    1  A    between atoms: O_1  and  C_18
REMARK    2  A    between atoms: O_1  and  C_26
REMARK    3  A    between atoms: O_5  and  C_29
REMARK    4  A    between atoms: O_5  and  C_43
REMARK    5  A    between atoms: O_6  and  C_30
REMARK    6  A    between atoms: O_6  and  C_40
REMARK    7  A    between atoms: O_8  and  C_31
REMARK    8  A    between atoms: O_8  and  C_47
REMARK    9  A    between atoms: O_9  and  C_32
REMARK   10  A    between atoms: O_9  and  C_49
REMARK   11  A    between atoms: N_11  and  C_45
REMARK   12  A    between atoms: N_11  and  C_51
REMARK   13  A    between atoms: N_11  and  C_52
REMARK   14  A    between atoms: C_27  and  C_34
REMARK   15  A    between atoms: C_33  and  C_39
REMARK   16  A    between atoms: C_36  and  C_41
REMARK   17  A    between atoms: C_41  and  C_48
REMARK   18  A    between atoms: C_46  and  C_50
REMARK                            x       y       z     vdW  Elec       q    Type
REMARK                         _______ _______ _______ _____ _____    ______ ____
ROOT
ATOM      1  O   UNL     1     109.894 116.837 128.394  0.00  0.00    -0.292 OA
ATOM      2  O   UNL     1     113.033 118.751 123.030  0.00  0.00    -0.461 OA
ATOM      3  O   UNL     1     113.875 120.142 124.608  0.00  0.00    -0.251 OA
ATOM      4  C   UNL     1     113.196 120.250 129.488  0.00  0.00    +0.006 C 
ATOM      5  C   UNL     1     112.653 119.803 128.143  0.00  0.00    +0.023 C 
ATOM      6  C   UNL     1     112.464 119.517 130.587  0.00  0.00    +0.018 C 
ATOM      7  C   UNL     1     113.397 118.465 127.856  0.00  0.00    +0.027 C 
ATOM      8  C   UNL     1     113.240 121.727 129.796  0.00  0.00    +0.036 C 
ATOM      9  C   UNL     1     112.819 120.374 131.801  0.00  0.00    +0.039 C 
ATOM     10  C   UNL     1     112.748 121.815 131.233  0.00  0.00    +0.122 C 
ATOM     11  C   UNL     1     112.630 118.137 126.536  0.00  0.00    +0.040 C 
ATOM     12  C   UNL     1     111.195 119.255 127.887  0.00  0.00    -0.015 C 
ATOM     13  C   UNL     1     112.844 118.051 130.374  0.00  0.00    -0.027 C 
ATOM     14  C   UNL     1     113.255 117.579 129.159  0.00  0.00    -0.026 C 
ATOM     15  C   UNL     1     111.217 118.184 127.030  0.00  0.00    -0.004 C 
ATOM     16  C   UNL     1     113.429 117.797 125.254  0.00  0.00    +0.129 C 
ATOM     17  C   UNL     1     110.227 117.082 127.222  0.00  0.00    +0.164 C 
ATOM     18  C   UNL     1     109.627 116.196 126.109  0.00  0.00    +0.086 C 
ATOM     19  C   UNL     1     113.480 119.022 124.283  0.00  0.00    +0.308 C 
ATOM     20  C   UNL     1     108.820 116.837 124.956  0.00  0.00    +0.132 C 
ATOM     21  C   UNL     1     110.409 114.929 125.792  0.00  0.00    +0.018 C 
ATOM     22  C   UNL     1     109.135 116.482 123.487  0.00  0.00    +0.032 C 
ATOM     23  C   UNL     1     111.632 119.058 122.807  0.00  0.00    +0.176 C 
ATOM     24  C   UNL     1     109.520 117.632 122.558  0.00  0.00    +0.006 C 
ATOM     25  C   UNL     1     111.030 117.707 122.413  0.00  0.00    +0.045 C 
ENDROOT
BRANCH  23  26
ATOM     26  C   UNL     1     111.481 120.093 121.669  0.00  0.00    +0.041 C 
ATOM     27  C   UNL     1     112.039 119.611 120.333  0.00  0.00    +0.007 C 
ENDBRANCH  23  26
BRANCH  10  28
ATOM     28  O   UNL     1     113.496 122.718 132.019  0.00  0.00    -0.345 OA
BRANCH  28  30
ATOM     29  O   UNL     1     112.626 124.911 132.584  0.00  0.00    -0.343 OA
ATOM     30  C   UNL     1     112.849 123.559 132.987  0.00  0.00    +0.282 C 
ATOM     31  C   UNL     1     113.366 123.448 134.442  0.00  0.00    +0.205 C 
ATOM     32  C   UNL     1     114.648 124.286 134.602  0.00  0.00    +0.183 C 
ATOM     33  C   UNL     1     114.506 125.734 134.077  0.00  0.00    +0.178 C 
ATOM     34  C   UNL     1     113.690 125.845 132.758  0.00  0.00    +0.150 C 
ATOM     35  C   UNL     1     113.087 127.240 132.614  0.00  0.00    +0.041 C 
BRANCH  31  36
ATOM     36  O   UNL     1     112.336 123.688 135.430  0.00  0.00    -0.372 OA
ATOM     37  C   UNL     1     111.184 122.861 135.465  0.00  0.00    +0.194 C 
ENDBRANCH  31  36
BRANCH  32  38
ATOM     38  O   UNL     1     115.309 124.149 135.873  0.00  0.00    -0.374 OA
ATOM     39  C   UNL     1     116.619 123.611 135.890  0.00  0.00    +0.194 C 
ENDBRANCH  32  38
BRANCH  33  40
ATOM     40  O   UNL     1     115.773 126.425 134.022  0.00  0.00    -0.375 OA
ATOM     41  C   UNL     1     115.984 127.486 134.943  0.00  0.00    +0.194 C 
ENDBRANCH  33  40
ENDBRANCH  28  30
ENDBRANCH  10  28
BRANCH  20  42
ATOM     42  O   UNL     1     108.653 118.226 125.179  0.00  0.00    -0.347 OA
BRANCH  42  44
ATOM     43  O   UNL     1     107.127 120.029 125.576  0.00  0.00    -0.347 OA
ATOM     44  C   UNL     1     107.294 118.623 125.456  0.00  0.00    +0.251 C 
ATOM     45  C   UNL     1     106.711 117.706 126.526  0.00  0.00    +0.063 C 
ATOM     46  C   UNL     1     106.578 118.361 127.879  0.00  0.00    +0.026 C 
ATOM     47  C   UNL     1     105.972 119.765 127.829  0.00  0.00    +0.085 C 
ATOM     48  C   UNL     1     106.678 120.656 126.778  0.00  0.00    +0.135 C 
ATOM     49  C   UNL     1     107.774 121.512 127.431  0.00  0.00    +0.039 C 
BRANCH  47  50
ATOM     50  N   UNL     1     104.485 119.757 127.753  0.00  0.00    -0.303 NA
ATOM     51  C   UNL     1     103.937 118.770 128.697  0.00  0.00    +0.105 C 
ATOM     52  C   UNL     1     103.833 121.047 127.985  0.00  0.00    +0.105 C 
ENDBRANCH  47  50
ENDBRANCH  42  44
ENDBRANCH  20  42
TORSDOF 9
ENDMDL
MODEL 6
REMARK VINA RESULT:      -8.3     30.947     35.306
REMARK  Name = 
REMARK  18 active torsions:
REMARK  status: ('A' for Active; 'I' for Inactive)
REMARK    1  A    between atoms: O_1  and  C_18
REMARK    2  A    between atoms: O_1  and  C_26
REMARK    3  A    between atoms: O_5  and  C_29
REMARK    4  A    between atoms: O_5  and  C_43
REMARK    5  A    between atoms: O_6  and  C_30
REMARK    6  A    between atoms: O_6  and  C_40
REMARK    7  A    between atoms: O_8  and  C_31
REMARK    8  A    between atoms: O_8  and  C_47
REMARK    9  A    between atoms: O_9  and  C_32
REMARK   10  A    between atoms: O_9  and  C_49
REMARK   11  A    between atoms: N_11  and  C_45
REMARK   12  A    between atoms: N_11  and  C_51
REMARK   13  A    between atoms: N_11  and  C_52
REMARK   14  A    between atoms: C_27  and  C_34
REMARK   15  A    between atoms: C_33  and  C_39
REMARK   16  A    between atoms: C_36  and  C_41
REMARK   17  A    between atoms: C_41  and  C_48
REMARK   18  A    between atoms: C_46  and  C_50
REMARK                            x       y       z     vdW  Elec       q    Type
REMARK                         _______ _______ _______ _____ _____    ______ ____
ROOT
ATOM      1  O   UNL     1     117.893 129.569 128.022  0.00  0.00    -0.292 OA
ATOM      2  O   UNL     1     113.656 129.142 123.106  0.00  0.00    -0.461 OA
ATOM      3  O   UNL     1     115.613 128.584 122.111  0.00  0.00    -0.251 OA
ATOM      4  C   UNL     1     120.104 127.890 124.016  0.00  0.00    +0.006 C 
ATOM      5  C   UNL     1     118.739 128.532 124.190  0.00  0.00    +0.023 C 
ATOM      6  C   UNL     1     120.832 127.907 125.339  0.00  0.00    +0.018 C 
ATOM      7  C   UNL     1     117.855 127.395 124.784  0.00  0.00    +0.027 C 
ATOM      8  C   UNL     1     121.011 128.401 122.923  0.00  0.00    +0.036 C 
ATOM      9  C   UNL     1     122.268 127.639 124.890  0.00  0.00    +0.039 C 
ATOM     10  C   UNL     1     122.378 128.472 123.587  0.00  0.00    +0.122 C 
ATOM     11  C   UNL     1     116.580 128.274 124.983  0.00  0.00    +0.040 C 
ATOM     12  C   UNL     1     118.378 129.622 125.272  0.00  0.00    -0.015 C 
ATOM     13  C   UNL     1     119.986 127.009 126.243  0.00  0.00    -0.027 C 
ATOM     14  C   UNL     1     118.660 126.783 126.000  0.00  0.00    -0.026 C 
ATOM     15  C   UNL     1     117.146 129.377 125.824  0.00  0.00    -0.004 C 
ATOM     16  C   UNL     1     115.223 127.788 124.419  0.00  0.00    +0.129 C 
ATOM     17  C   UNL     1     116.918 129.706 127.263  0.00  0.00    +0.164 C 
ATOM     18  C   UNL     1     115.579 130.145 127.893  0.00  0.00    +0.086 C 
ATOM     19  C   UNL     1     114.868 128.533 123.091  0.00  0.00    +0.308 C 
ATOM     20  C   UNL     1     114.872 131.428 127.398  0.00  0.00    +0.132 C 
ATOM     21  C   UNL     1     114.696 129.014 128.401  0.00  0.00    +0.018 C 
ATOM     22  C   UNL     1     113.374 131.405 127.026  0.00  0.00    +0.032 C 
ATOM     23  C   UNL     1     113.686 130.542 123.492  0.00  0.00    +0.176 C 
ATOM     24  C   UNL     1     113.001 131.818 125.603  0.00  0.00    +0.006 C 
ATOM     25  C   UNL     1     112.795 130.589 124.735  0.00  0.00    +0.045 C 
ENDROOT
BRANCH  23  26
ATOM     26  C   UNL     1     113.115 131.425 122.359  0.00  0.00    +0.041 C 
ATOM     27  C   UNL     1     111.590 131.428 122.303  0.00  0.00    +0.007 C 
ENDBRANCH  23  26
BRANCH  10  28
ATOM     28  O   UNL     1     123.419 128.001 122.758  0.00  0.00    -0.345 OA
BRANCH  28  30
ATOM     29  O   UNL     1     125.151 128.442 121.116  0.00  0.00    -0.343 OA
ATOM     30  C   UNL     1     124.422 128.899 122.258  0.00  0.00    +0.282 C 
ATOM     31  C   UNL     1     125.333 129.564 123.318  0.00  0.00    +0.205 C 
ATOM     32  C   UNL     1     126.446 128.585 123.735  0.00  0.00    +0.183 C 
ATOM     33  C   UNL     1     127.200 127.967 122.535  0.00  0.00    +0.178 C 
ATOM     34  C   UNL     1     126.279 127.599 121.337  0.00  0.00    +0.150 C 
ATOM     35  C   UNL     1     127.076 127.569 120.035  0.00  0.00    +0.041 C 
BRANCH  31  36
ATOM     36  O   UNL     1     125.776 130.888 122.935  0.00  0.00    -0.372 OA
ATOM     37  C   UNL     1     125.640 131.969 123.843  0.00  0.00    +0.194 C 
ENDBRANCH  31  36
BRANCH  32  38
ATOM     38  O   UNL     1     127.273 129.033 124.824  0.00  0.00    -0.374 OA
ATOM     39  C   UNL     1     126.676 129.178 126.099  0.00  0.00    +0.194 C 
ENDBRANCH  32  38
BRANCH  33  40
ATOM     40  O   UNL     1     128.074 126.887 122.933  0.00  0.00    -0.375 OA
ATOM     41  C   UNL     1     127.476 125.635 123.237  0.00  0.00    +0.194 C 
ENDBRANCH  33  40
ENDBRANCH  28  30
ENDBRANCH  10  28
BRANCH  20  42
ATOM     42  O   UNL     1     115.679 132.108 126.452  0.00  0.00    -0.347 OA
BRANCH  42  44
ATOM     43  O   UNL     1     115.653 133.930 128.007  0.00  0.00    -0.347 OA
ATOM     44  C   UNL     1     116.370 133.258 126.980  0.00  0.00    +0.251 C 
ATOM     45  C   UNL     1     116.959 134.065 125.828  0.00  0.00    +0.063 C 
ATOM     46  C   UNL     1     116.218 135.349 125.546  0.00  0.00    +0.026 C 
ATOM     47  C   UNL     1     115.887 136.159 126.802  0.00  0.00    +0.085 C 
ATOM     48  C   UNL     1     115.216 135.283 127.887  0.00  0.00    +0.135 C 
ATOM     49  C   UNL     1     113.685 135.396 127.814  0.00  0.00    +0.039 C 
BRANCH  47  50
ATOM     50  N   UNL     1     117.027 136.990 127.277  0.00  0.00    -0.303 NA
ATOM     51  C   UNL     1     117.396 137.976 126.249  0.00  0.00    +0.105 C 
ATOM     52  C   UNL     1     116.814 137.689 128.547  0.00  0.00    +0.105 C 
ENDBRANCH  47  50
ENDBRANCH  42  44
ENDBRANCH  20  42
TORSDOF 9
ENDMDL
MODEL 7
REMARK VINA RESULT:      -8.3     22.852     33.064
REMARK  Name = 
REMARK  18 active torsions:
REMARK  status: ('A' for Active; 'I' for Inactive)
REMARK    1  A    between atoms: O_1  and  C_18
REMARK    2  A    between atoms: O_1  and  C_26
REMARK    3  A    between atoms: O_5  and  C_29
REMARK    4  A    between atoms: O_5  and  C_43
REMARK    5  A    between atoms: O_6  and  C_30
REMARK    6  A    between atoms: O_6  and  C_40
REMARK    7  A    between atoms: O_8  and  C_31
REMARK    8  A    between atoms: O_8  and  C_47
REMARK    9  A    between atoms: O_9  and  C_32
REMARK   10  A    between atoms: O_9  and  C_49
REMARK   11  A    between atoms: N_11  and  C_45
REMARK   12  A    between atoms: N_11  and  C_51
REMARK   13  A    between atoms: N_11  and  C_52
REMARK   14  A    between atoms: C_27  and  C_34
REMARK   15  A    between atoms: C_33  and  C_39
REMARK   16  A    between atoms: C_36  and  C_41
REMARK   17  A    between atoms: C_41  and  C_48
REMARK   18  A    between atoms: C_46  and  C_50
REMARK                            x       y       z     vdW  Elec       q    Type
REMARK                         _______ _______ _______ _____ _____    ______ ____
ROOT
ATOM      1  O   UNL     1     113.562 130.555 128.404  0.00  0.00    -0.292 OA
ATOM      2  O   UNL     1     116.385 128.200 123.039  0.00  0.00    -0.461 OA
ATOM      3  O   UNL     1     117.963 127.828 124.622  0.00  0.00    -0.251 OA
ATOM      4  C   UNL     1     117.833 128.482 129.504  0.00  0.00    +0.006 C 
ATOM      5  C   UNL     1     117.243 128.865 128.159  0.00  0.00    +0.023 C 
ATOM      6  C   UNL     1     116.903 128.941 130.602  0.00  0.00    +0.018 C 
ATOM      7  C   UNL     1     116.206 127.740 127.862  0.00  0.00    +0.027 C 
ATOM      8  C   UNL     1     119.248 128.901 129.821  0.00  0.00    +0.036 C 
ATOM      9  C   UNL     1     117.823 128.867 131.820  0.00  0.00    +0.039 C 
ATOM     10  C   UNL     1     119.172 129.388 131.260  0.00  0.00    +0.122 C 
ATOM     11  C   UNL     1     115.661 128.373 126.543  0.00  0.00    +0.040 C 
ATOM     12  C   UNL     1     116.267 130.078 127.905  0.00  0.00    -0.015 C 
ATOM     13  C   UNL     1     115.630 128.123 130.380  0.00  0.00    -0.027 C 
ATOM     14  C   UNL     1     115.316 127.591 129.161  0.00  0.00    -0.026 C 
ATOM     15  C   UNL     1     115.260 129.727 127.042  0.00  0.00    -0.004 C 
ATOM     16  C   UNL     1     115.594 127.514 125.256  0.00  0.00    +0.129 C 
ATOM     17  C   UNL     1     113.904 130.321 127.232  0.00  0.00    +0.164 C 
ATOM     18  C   UNL     1     112.878 130.619 126.117  0.00  0.00    +0.086 C 
ATOM     19  C   UNL     1     116.776 127.854 124.292  0.00  0.00    +0.308 C 
ATOM     20  C   UNL     1     113.240 131.592 124.970  0.00  0.00    +0.132 C 
ATOM     21  C   UNL     1     111.922 129.481 125.790  0.00  0.00    +0.018 C 
ATOM     22  C   UNL     1     113.006 131.190 123.498  0.00  0.00    +0.032 C 
ATOM     23  C   UNL     1     116.237 129.628 122.823  0.00  0.00    +0.176 C 
ATOM     24  C   UNL     1     114.223 131.188 122.573  0.00  0.00    +0.006 C 
ATOM     25  C   UNL     1     114.768 129.779 122.423  0.00  0.00    +0.045 C 
ENDROOT
BRANCH  23  26
ATOM     26  C   UNL     1     117.178 130.102 121.691  0.00  0.00    +0.041 C 
ATOM     27  C   UNL     1     116.820 129.524 120.325  0.00  0.00    +0.007 C 
ENDBRANCH  23  26
BRANCH  10  28
ATOM     28  O   UNL     1     120.260 128.956 132.048  0.00  0.00    -0.345 OA
BRANCH  28  30
ATOM     29  O   UNL     1     122.116 130.436 132.551  0.00  0.00    -0.343 OA
ATOM     30  C   UNL     1     120.888 129.847 132.983  0.00  0.00    +0.282 C 
ATOM     31  C   UNL     1     120.943 129.367 134.453  0.00  0.00    +0.205 C 
ATOM     32  C   UNL     1     122.115 128.384 134.634  0.00  0.00    +0.183 C 
ATOM     33  C   UNL     1     123.456 128.919 134.081  0.00  0.00    +0.178 C 
ATOM     34  C   UNL     1     123.317 129.691 132.738  0.00  0.00    +0.150 C 
ATOM     35  C   UNL     1     124.480 130.663 132.554  0.00  0.00    +0.041 C 
BRANCH  31  36
ATOM     36  O   UNL     1     120.885 130.453 135.408  0.00  0.00    -0.372 OA
ATOM     37  C   UNL     1     119.725 131.263 135.486  0.00  0.00    +0.194 C 
ENDBRANCH  31  36
BRANCH  32  38
ATOM     38  O   UNL     1     122.184 127.751 135.925  0.00  0.00    -0.374 OA
ATOM     39  C   UNL     1     121.801 126.392 136.024  0.00  0.00    +0.194 C 
ENDBRANCH  32  38
BRANCH  33  40
ATOM     40  O   UNL     1     124.482 127.902 134.049  0.00  0.00    -0.375 OA
ATOM     41  C   UNL     1     125.553 128.019 134.975  0.00  0.00    +0.194 C 
ENDBRANCH  33  40
ENDBRANCH  28  30
ENDBRANCH  10  28
BRANCH  20  42
ATOM     42  O   UNL     1     114.506 132.185 125.200  0.00  0.00    -0.347 OA
BRANCH  42  44
ATOM     43  O   UNL     1     115.740 134.205 125.562  0.00  0.00    -0.347 OA
ATOM     44  C   UNL     1     114.457 133.601 125.469  0.00  0.00    +0.251 C 
ATOM     45  C   UNL     1     113.422 133.872 126.555  0.00  0.00    +0.063 C 
ATOM     46  C   UNL     1     114.024 134.215 127.895  0.00  0.00    +0.026 C 
ATOM     47  C   UNL     1     115.164 135.234 127.817  0.00  0.00    +0.085 C 
ATOM     48  C   UNL     1     116.213 134.837 126.751  0.00  0.00    +0.135 C 
ATOM     49  C   UNL     1     117.383 134.074 127.389  0.00  0.00    +0.039 C 
BRANCH  47  50
ATOM     50  N   UNL     1     114.685 136.641 127.740  0.00  0.00    -0.303 NA
ATOM     51  C   UNL     1     113.609 136.863 128.719  0.00  0.00    +0.105 C 
ATOM     52  C   UNL     1     115.711 137.670 127.923  0.00  0.00    +0.105 C 
ENDBRANCH  47  50
ENDBRANCH  42  44
ENDBRANCH  20  42
TORSDOF 9
ENDMDL
MODEL 8
REMARK VINA RESULT:      -8.2     32.274     35.837
REMARK  Name = 
REMARK  18 active torsions:
REMARK  status: ('A' for Active; 'I' for Inactive)
REMARK    1  A    between atoms: O_1  and  C_18
REMARK    2  A    between atoms: O_1  and  C_26
REMARK    3  A    between atoms: O_5  and  C_29
REMARK    4  A    between atoms: O_5  and  C_43
REMARK    5  A    between atoms: O_6  and  C_30
REMARK    6  A    between atoms: O_6  and  C_40
REMARK    7  A    between atoms: O_8  and  C_31
REMARK    8  A    between atoms: O_8  and  C_47
REMARK    9  A    between atoms: O_9  and  C_32
REMARK   10  A    between atoms: O_9  and  C_49
REMARK   11  A    between atoms: N_11  and  C_45
REMARK   12  A    between atoms: N_11  and  C_51
REMARK   13  A    between atoms: N_11  and  C_52
REMARK   14  A    between atoms: C_27  and  C_34
REMARK   15  A    between atoms: C_33  and  C_39
REMARK   16  A    between atoms: C_36  and  C_41
REMARK   17  A    between atoms: C_41  and  C_48
REMARK   18  A    between atoms: C_46  and  C_50
REMARK                            x       y       z     vdW  Elec       q    Type
REMARK                         _______ _______ _______ _____ _____    ______ ____
ROOT
ATOM      1  O   UNL     1     118.880 112.373 128.130  0.00  0.00    -0.292 OA
ATOM      2  O   UNL     1     122.543 110.350 123.151  0.00  0.00    -0.461 OA
ATOM      3  O   UNL     1     121.278 111.970 122.197  0.00  0.00    -0.251 OA
ATOM      4  C   UNL     1     118.050 115.116 124.188  0.00  0.00    +0.006 C 
ATOM      5  C   UNL     1     118.783 113.794 124.329  0.00  0.00    +0.023 C 
ATOM      6  C   UNL     1     117.456 115.500 125.523  0.00  0.00    +0.018 C 
ATOM      7  C   UNL     1     120.168 114.186 124.926  0.00  0.00    +0.027 C 
ATOM      8  C   UNL     1     117.011 115.257 123.103  0.00  0.00    +0.036 C 
ATOM      9  C   UNL     1     116.446 116.566 125.101  0.00  0.00    +0.039 C 
ATOM     10  C   UNL     1     115.863 115.984 123.788  0.00  0.00    +0.122 C 
ATOM     11  C   UNL     1     120.688 112.723 125.090  0.00  0.00    +0.040 C 
ATOM     12  C   UNL     1     118.443 112.675 125.389  0.00  0.00    -0.015 C 
ATOM     13  C   UNL     1     118.671 115.712 126.426  0.00  0.00    -0.027 C 
ATOM     14  C   UNL     1     119.878 115.126 126.164  0.00  0.00    -0.026 C 
ATOM     15  C   UNL     1     119.588 112.141 125.923  0.00  0.00    -0.004 C 
ATOM     16  C   UNL     1     122.071 112.336 124.510  0.00  0.00    +0.129 C 
ATOM     17  C   UNL     1     119.587 111.709 127.353  0.00  0.00    +0.164 C 
ATOM     18  C   UNL     1     120.419 110.556 127.954  0.00  0.00    +0.086 C 
ATOM     19  C   UNL     1     121.916 111.554 123.165  0.00  0.00    +0.308 C 
ATOM     20  C   UNL     1     120.239 109.113 127.427  0.00  0.00    +0.132 C 
ATOM     21  C   UNL     1     121.799 110.945 128.464  0.00  0.00    +0.018 C 
ATOM     22  C   UNL     1     121.467 108.264 127.031  0.00  0.00    +0.032 C 
ATOM     23  C   UNL     1     121.702 109.224 123.516  0.00  0.00    +0.176 C 
ATOM     24  C   UNL     1     121.521 107.743 125.595  0.00  0.00    +0.006 C 
ATOM     25  C   UNL     1     122.402 108.638 124.743  0.00  0.00    +0.045 C 
ENDROOT
BRANCH  23  26
ATOM     26  C   UNL     1     121.643 108.199 122.361  0.00  0.00    +0.041 C 
ATOM     27  C   UNL     1     122.871 107.297 122.288  0.00  0.00    +0.007 C 
ENDBRANCH  23  26
BRANCH  10  28
ATOM     28  O   UNL     1     115.291 116.993 122.984  0.00  0.00    -0.345 OA
BRANCH  28  30
ATOM     29  O   UNL     1     113.695 117.599 121.259  0.00  0.00    -0.343 OA
ATOM     30  C   UNL     1     113.974 116.834 122.433  0.00  0.00    +0.282 C 
ATOM     31  C   UNL     1     112.804 116.850 123.446  0.00  0.00    +0.205 C 
ATOM     32  C   UNL     1     112.453 118.304 123.811  0.00  0.00    +0.183 C 
ATOM     33  C   UNL     1     112.250 119.215 122.578  0.00  0.00    +0.178 C 
ATOM     34  C   UNL     1     113.261 118.947 121.427  0.00  0.00    +0.150 C 
ATOM     35  C   UNL     1     112.684 119.400 120.088  0.00  0.00    +0.041 C 
BRANCH  31  36
ATOM     36  O   UNL     1     111.689 116.022 123.038  0.00  0.00    -0.372 OA
ATOM     37  C   UNL     1     111.204 115.012 123.908  0.00  0.00    +0.194 C 
ENDBRANCH  31  36
BRANCH  32  38
ATOM     38  O   UNL     1     111.476 118.450 124.858  0.00  0.00    -0.374 OA
ATOM     39  C   UNL     1     111.791 117.942 126.141  0.00  0.00    +0.194 C 
ENDBRANCH  32  38
BRANCH  33  40
ATOM     40  O   UNL     1     112.153 120.611 122.936  0.00  0.00    -0.375 OA
ATOM     41  C   UNL     1     113.347 121.275 123.323  0.00  0.00    +0.194 C 
ENDBRANCH  33  40
ENDBRANCH  28  30
ENDBRANCH  10  28
BRANCH  20  42
ATOM     42  O   UNL     1     119.183 109.055 126.485  0.00  0.00    -0.347 OA
BRANCH  42  44
ATOM     43  O   UNL     1     118.127 107.590 128.059  0.00  0.00    -0.347 OA
ATOM     44  C   UNL     1     117.946 108.536 127.013  0.00  0.00    +0.251 C 
ATOM     45  C   UNL     1     117.006 108.204 125.859  0.00  0.00    +0.063 C 
ATOM     46  C   UNL     1     116.858 106.724 125.603  0.00  0.00    +0.026 C 
ATOM     47  C   UNL     1     116.643 105.896 126.873  0.00  0.00    +0.085 C 
ATOM     48  C   UNL     1     117.691 106.234 127.960  0.00  0.00    +0.135 C 
ATOM     49  C   UNL     1     118.868 105.247 127.915  0.00  0.00    +0.039 C 
BRANCH  47  50
ATOM     50  N   UNL     1     115.229 105.897 127.337  0.00  0.00    -0.303 NA
ATOM     51  C   UNL     1     114.366 105.261 126.328  0.00  0.00    +0.105 C 
ATOM     52  C   UNL     1     114.988 105.260 128.634  0.00  0.00    +0.105 C 
ENDBRANCH  47  50
ENDBRANCH  42  44
ENDBRANCH  20  42
TORSDOF 9
ENDMDL
MODEL 9
REMARK VINA RESULT:      -8.0     28.910     34.278
REMARK  Name = 
REMARK  18 active torsions:
REMARK  status: ('A' for Active; 'I' for Inactive)
REMARK    1  A    between atoms: O_1  and  C_18
REMARK    2  A    between atoms: O_1  and  C_26
REMARK    3  A    between atoms: O_5  and  C_29
REMARK    4  A    between atoms: O_5  and  C_43
REMARK    5  A    between atoms: O_6  and  C_30
REMARK    6  A    between atoms: O_6  and  C_40
REMARK    7  A    between atoms: O_8  and  C_31
REMARK    8  A    between atoms: O_8  and  C_47
REMARK    9  A    between atoms: O_9  and  C_32
REMARK   10  A    between atoms: O_9  and  C_49
REMARK   11  A    between atoms: N_11  and  C_45
REMARK   12  A    between atoms: N_11  and  C_51
REMARK   13  A    between atoms: N_11  and  C_52
REMARK   14  A    between atoms: C_27  and  C_34
REMARK   15  A    between atoms: C_33  and  C_39
REMARK   16  A    between atoms: C_36  and  C_41
REMARK   17  A    between atoms: C_41  and  C_48
REMARK   18  A    between atoms: C_46  and  C_50
REMARK                            x       y       z     vdW  Elec       q    Type
REMARK                         _______ _______ _______ _____ _____    ______ ____
ROOT
ATOM      1  O   UNL     1     117.584 129.970 128.822  0.00  0.00    -0.292 OA
ATOM      2  O   UNL     1     115.696 128.633 122.744  0.00  0.00    -0.461 OA
ATOM      3  O   UNL     1     117.920 128.210 122.665  0.00  0.00    -0.251 OA
ATOM      4  C   UNL     1     121.316 128.197 126.237  0.00  0.00    +0.006 C 
ATOM      5  C   UNL     1     119.955 128.694 125.785  0.00  0.00    +0.023 C 
ATOM      6  C   UNL     1     121.454 128.413 127.725  0.00  0.00    +0.018 C 
ATOM      7  C   UNL     1     118.986 127.524 126.127  0.00  0.00    +0.027 C 
ATOM      8  C   UNL     1     122.546 128.706 125.527  0.00  0.00    +0.036 C 
ATOM      9  C   UNL     1     122.964 128.269 127.906  0.00  0.00    +0.039 C 
ATOM     10  C   UNL     1     123.528 128.989 126.654  0.00  0.00    +0.122 C 
ATOM     11  C   UNL     1     117.681 128.269 125.703  0.00  0.00    +0.040 C 
ATOM     12  C   UNL     1     119.120 129.830 126.494  0.00  0.00    -0.015 C 
ATOM     13  C   UNL     1     120.380 127.512 128.335  0.00  0.00    -0.027 C 
ATOM     14  C   UNL     1     119.279 127.117 127.627  0.00  0.00    -0.026 C 
ATOM     15  C   UNL     1     117.789 129.499 126.550  0.00  0.00    -0.004 C 
ATOM     16  C   UNL     1     116.698 127.585 124.722  0.00  0.00    +0.129 C 
ATOM     17  C   UNL     1     116.986 129.928 127.733  0.00  0.00    +0.164 C 
ATOM     18  C   UNL     1     115.480 130.270 127.733  0.00  0.00    +0.086 C 
ATOM     19  C   UNL     1     116.852 128.164 123.277  0.00  0.00    +0.308 C 
ATOM     20  C   UNL     1     114.944 131.416 126.844  0.00  0.00    +0.132 C 
ATOM     21  C   UNL     1     114.546 129.097 127.996  0.00  0.00    +0.018 C 
ATOM     22  C   UNL     1     113.724 131.192 125.926  0.00  0.00    +0.032 C 
ATOM     23  C   UNL     1     115.475 130.056 122.930  0.00  0.00    +0.176 C 
ATOM     24  C   UNL     1     113.922 131.431 124.430  0.00  0.00    +0.006 C 
ATOM     25  C   UNL     1     114.163 130.114 123.713  0.00  0.00    +0.045 C 
ENDROOT
BRANCH  23  26
ATOM     26  C   UNL     1     115.345 130.764 121.563  0.00  0.00    +0.041 C 
ATOM     27  C   UNL     1     116.683 130.975 120.859  0.00  0.00    +0.007 C 
ENDBRANCH  23  26
BRANCH  10  28
ATOM     28  O   UNL     1     124.842 128.564 126.362  0.00  0.00    -0.345 OA
BRANCH  28  30
ATOM     29  O   UNL     1     125.783 130.796 126.513  0.00  0.00    -0.343 OA
ATOM     30  C   UNL     1     125.970 129.391 126.691  0.00  0.00    +0.282 C 
ATOM     31  C   UNL     1     127.346 128.903 126.178  0.00  0.00    +0.205 C 
ATOM     32  C   UNL     1     127.517 129.295 124.698  0.00  0.00    +0.183 C 
ATOM     33  C   UNL     1     127.217 130.786 124.419  0.00  0.00    +0.178 C 
ATOM     34  C   UNL     1     125.999 131.340 125.213  0.00  0.00    +0.150 C 
ATOM     35  C   UNL     1     126.105 132.854 125.374  0.00  0.00    +0.041 C 
BRANCH  31  36
ATOM     36  O   UNL     1     128.440 129.270 127.051  0.00  0.00    -0.372 OA
ATOM     37  C   UNL     1     129.009 128.301 127.916  0.00  0.00    +0.194 C 
ENDBRANCH  31  36
BRANCH  32  38
ATOM     38  O   UNL     1     128.696 128.771 124.062  0.00  0.00    -0.374 OA
ATOM     39  C   UNL     1     128.528 127.908 122.952  0.00  0.00    +0.194 C 
ENDBRANCH  32  38
BRANCH  33  40
ATOM     40  O   UNL     1     127.155 131.080 123.006  0.00  0.00    -0.375 OA
ATOM     41  C   UNL     1     128.187 131.888 122.456  0.00  0.00    +0.194 C 
ENDBRANCH  33  40
ENDBRANCH  28  30
ENDBRANCH  10  28
BRANCH  20  42
ATOM     42  O   UNL     1     116.014 132.094 126.208  0.00  0.00    -0.347 OA
BRANCH  42  44
ATOM     43  O   UNL     1     115.588 133.734 127.901  0.00  0.00    -0.347 OA
ATOM     44  C   UNL     1     116.505 133.239 126.933  0.00  0.00    +0.251 C 
ATOM     45  C   UNL     1     117.159 134.211 125.958  0.00  0.00    +0.063 C 
ATOM     46  C   UNL     1     116.336 135.447 125.689  0.00  0.00    +0.026 C 
ATOM     47  C   UNL     1     115.755 136.089 126.951  0.00  0.00    +0.085 C 
ATOM     48  C   UNL     1     115.035 135.049 127.842  0.00  0.00    +0.135 C 
ATOM     49  C   UNL     1     113.525 135.032 127.556  0.00  0.00    +0.039 C 
BRANCH  47  50
ATOM     50  N   UNL     1     116.728 136.964 127.661  0.00  0.00    -0.303 NA
ATOM     51  C   UNL     1     116.135 138.290 127.897  0.00  0.00    +0.105 C 
ATOM     52  C   UNL     1     117.239 136.442 128.930  0.00  0.00    +0.105 C 
ENDBRANCH  47  50
ENDBRANCH  42  44
ENDBRANCH  20  42
TORSDOF 9
ENDMDL
MODEL 10
REMARK VINA RESULT:      -8.0     18.329     21.385
REMARK  Name = 
REMARK  18 active torsions:
REMARK  status: ('A' for Active; 'I' for Inactive)
REMARK    1  A    between atoms: O_1  and  C_18
REMARK    2  A    between atoms: O_1  and  C_26
REMARK    3  A    between atoms: O_5  and  C_29
REMARK    4  A    between atoms: O_5  and  C_43
REMARK    5  A    between atoms: O_6  and  C_30
REMARK    6  A    between atoms: O_6  and  C_40
REMARK    7  A    between atoms: O_8  and  C_31
REMARK    8  A    between atoms: O_8  and  C_47
REMARK    9  A    between atoms: O_9  and  C_32
REMARK   10  A    between atoms: O_9  and  C_49
REMARK   11  A    between atoms: N_11  and  C_45
REMARK   12  A    between atoms: N_11  and  C_51
REMARK   13  A    between atoms: N_11  and  C_52
REMARK   14  A    between atoms: C_27  and  C_34
REMARK   15  A    between atoms: C_33  and  C_39
REMARK   16  A    between atoms: C_36  and  C_41
REMARK   17  A    between atoms: C_41  and  C_48
REMARK   18  A    between atoms: C_46  and  C_50
REMARK                            x       y       z     vdW  Elec       q    Type
REMARK                         _______ _______ _______ _____ _____    ______ ____
ROOT
ATOM      1  O   UNL     1     113.805 119.018 161.190  0.00  0.00    -0.292 OA
ATOM      2  O   UNL     1     115.433 116.445 155.444  0.00  0.00    -0.461 OA
ATOM      3  O   UNL     1     114.344 118.337 154.838  0.00  0.00    -0.251 OA
ATOM      4  C   UNL     1     112.558 122.030 157.568  0.00  0.00    +0.006 C 
ATOM      5  C   UNL     1     112.991 120.576 157.532  0.00  0.00    +0.023 C 
ATOM      6  C   UNL     1     112.450 122.480 159.005  0.00  0.00    +0.018 C 
ATOM      7  C   UNL     1     114.537 120.632 157.716  0.00  0.00    +0.027 C 
ATOM      8  C   UNL     1     111.320 122.436 156.807  0.00  0.00    +0.036 C 
ATOM      9  C   UNL     1     111.624 123.757 158.854  0.00  0.00    +0.039 C 
ATOM     10  C   UNL     1     110.592 123.368 157.764  0.00  0.00    +0.122 C 
ATOM     11  C   UNL     1     114.747 119.086 157.764  0.00  0.00    +0.040 C 
ATOM     12  C   UNL     1     112.715 119.516 158.668  0.00  0.00    -0.015 C 
ATOM     13  C   UNL     1     113.881 122.387 159.535  0.00  0.00    -0.027 C 
ATOM     14  C   UNL     1     114.811 121.563 158.965  0.00  0.00    -0.026 C 
ATOM     15  C   UNL     1     113.815 118.724 158.880  0.00  0.00    -0.004 C 
ATOM     16  C   UNL     1     115.799 118.430 156.835  0.00  0.00    +0.129 C 
ATOM     17  C   UNL     1     114.109 118.247 160.264  0.00  0.00    +0.164 C 
ATOM     18  C   UNL     1     114.798 116.917 160.639  0.00  0.00    +0.086 C 
ATOM     19  C   UNL     1     115.115 117.755 155.602  0.00  0.00    +0.308 C 
ATOM     20  C   UNL     1     114.169 115.570 160.214  0.00  0.00    +0.132 C 
ATOM     21  C   UNL     1     116.316 116.976 160.741  0.00  0.00    +0.018 C 
ATOM     22  C   UNL     1     115.023 114.491 159.515  0.00  0.00    +0.032 C 
ATOM     23  C   UNL     1     114.496 115.515 156.050  0.00  0.00    +0.176 C 
ATOM     24  C   UNL     1     114.567 114.028 158.132  0.00  0.00    +0.006 C 
ATOM     25  C   UNL     1     115.358 114.743 157.051  0.00  0.00    +0.045 C 
ENDROOT
BRANCH  23  26
ATOM     26  C   UNL     1     113.901 114.574 154.978  0.00  0.00    +0.041 C 
ATOM     27  C   UNL     1     112.870 115.254 154.081  0.00  0.00    +0.007 C 
ENDBRANCH  23  26
BRANCH  10  28
ATOM     28  O   UNL     1     110.059 124.509 157.126  0.00  0.00    -0.345 OA
BRANCH  28  30
ATOM     29  O   UNL     1     107.772 125.275 157.396  0.00  0.00    -0.343 OA
ATOM     30  C   UNL     1     109.136 125.369 157.812  0.00  0.00    +0.282 C 
ATOM     31  C   UNL     1     109.594 126.832 158.025  0.00  0.00    +0.205 C 
ATOM     32  C   UNL     1     109.359 127.642 156.736  0.00  0.00    +0.183 C 
ATOM     33  C   UNL     1     107.928 127.491 156.169  0.00  0.00    +0.178 C 
ATOM     34  C   UNL     1     107.364 126.045 156.267  0.00  0.00    +0.150 C 
ATOM     35  C   UNL     1     105.837 126.062 156.267  0.00  0.00    +0.041 C 
BRANCH  31  36
ATOM     36  O   UNL     1     109.068 127.422 159.238  0.00  0.00    -0.372 OA
ATOM     37  C   UNL     1     109.955 127.963 160.202  0.00  0.00    +0.194 C 
ENDBRANCH  31  36
BRANCH  32  38
ATOM     38  O   UNL     1     109.879 128.983 156.757  0.00  0.00    -0.374 OA
ATOM     39  C   UNL     1     110.908 129.314 155.843  0.00  0.00    +0.194 C 
ENDBRANCH  32  38
BRANCH  33  40
ATOM     40  O   UNL     1     107.797 128.064 154.849  0.00  0.00    -0.375 OA
ATOM     41  C   UNL     1     107.230 129.363 154.749  0.00  0.00    +0.194 C 
ENDBRANCH  33  40
ENDBRANCH  28  30
ENDBRANCH  10  28
BRANCH  20  42
ATOM     42  O   UNL     1     112.910 115.781 159.600  0.00  0.00    -0.347 OA
BRANCH  42  44
ATOM     43  O   UNL     1     112.145 114.866 161.677  0.00  0.00    -0.347 OA
ATOM     44  C   UNL     1     111.785 115.341 160.387  0.00  0.00    +0.251 C 
ATOM     45  C   UNL     1     110.856 114.503 159.515  0.00  0.00    +0.063 C 
ATOM     46  C   UNL     1     110.916 113.024 159.809  0.00  0.00    +0.026 C 
ATOM     47  C   UNL     1     110.878 112.691 161.303  0.00  0.00    +0.085 C 
ATOM     48  C   UNL     1     111.909 113.523 162.102  0.00  0.00    +0.135 C 
ATOM     49  C   UNL     1     113.215 112.737 162.299  0.00  0.00    +0.039 C 
BRANCH  47  50
ATOM     50  N   UNL     1     109.499 112.686 161.864  0.00  0.00    -0.303 NA
ATOM     51  C   UNL     1     108.617 111.854 161.030  0.00  0.00    +0.105 C 
ATOM     52  C   UNL     1     109.385 112.248 163.257  0.00  0.00    +0.105 C 
ENDBRANCH  47  50
ENDBRANCH  42  44
ENDBRANCH  20  42
TORSDOF 9
ENDMDL
MODEL 11
REMARK VINA RESULT:      -8.0     42.489     47.865
REMARK  Name = 
REMARK  18 active torsions:
REMARK  status: ('A' for Active; 'I' for Inactive)
REMARK    1  A    between atoms: O_1  and  C_18
REMARK    2  A    between atoms: O_1  and  C_26
REMARK    3  A    between atoms: O_5  and  C_29
REMARK    4  A    between atoms: O_5  and  C_43
REMARK    5  A    between atoms: O_6  and  C_30
REMARK    6  A    between atoms: O_6  and  C_40
REMARK    7  A    between atoms: O_8  and  C_31
REMARK    8  A    between atoms: O_8  and  C_47
REMARK    9  A    between atoms: O_9  and  C_32
REMARK   10  A    between atoms: O_9  and  C_49
REMARK   11  A    between atoms: N_11  and  C_45
REMARK   12  A    between atoms: N_11  and  C_51
REMARK   13  A    between atoms: N_11  and  C_52
REMARK   14  A    between atoms: C_27  and  C_34
REMARK   15  A    between atoms: C_33  and  C_39
REMARK   16  A    between atoms: C_36  and  C_41
REMARK   17  A    between atoms: C_41  and  C_48
REMARK   18  A    between atoms: C_46  and  C_50
REMARK                            x       y       z     vdW  Elec       q    Type
REMARK                         _______ _______ _______ _____ _____    ______ ____
ROOT
ATOM      1  O   UNL     1     119.511 120.230 111.469  0.00  0.00    -0.292 OA
ATOM      2  O   UNL     1     121.262 126.479 111.885  0.00  0.00    -0.461 OA
ATOM      3  O   UNL     1     120.884 126.227 109.666  0.00  0.00    -0.251 OA
ATOM      4  C   UNL     1     119.108 122.398 107.124  0.00  0.00    +0.006 C 
ATOM      5  C   UNL     1     119.787 122.867 108.397  0.00  0.00    +0.023 C 
ATOM      6  C   UNL     1     118.588 120.994 107.327  0.00  0.00    +0.018 C 
ATOM      7  C   UNL     1     118.613 123.346 109.303  0.00  0.00    +0.027 C 
ATOM      8  C   UNL     1     119.869 122.481 105.823  0.00  0.00    +0.036 C 
ATOM      9  C   UNL     1     118.345 120.557 105.883  0.00  0.00    +0.039 C 
ATOM     10  C   UNL     1     119.563 121.159 105.135  0.00  0.00    +0.122 C 
ATOM     11  C   UNL     1     119.496 123.663 110.551  0.00  0.00    +0.040 C 
ATOM     12  C   UNL     1     120.465 121.925 109.467  0.00  0.00    -0.015 C 
ATOM     13  C   UNL     1     117.525 121.143 108.417  0.00  0.00    -0.027 C 
ATOM     14  C   UNL     1     117.537 122.187 109.299  0.00  0.00    -0.026 C 
ATOM     15  C   UNL     1     120.173 122.341 110.742  0.00  0.00    -0.004 C 
ATOM     16  C   UNL     1     119.380 125.047 111.234  0.00  0.00    +0.129 C 
ATOM     17  C   UNL     1     120.003 121.317 111.815  0.00  0.00    +0.164 C 
ATOM     18  C   UNL     1     120.333 121.507 113.312  0.00  0.00    +0.086 C 
ATOM     19  C   UNL     1     120.573 125.974 110.831  0.00  0.00    +0.308 C 
ATOM     20  C   UNL     1     121.774 121.855 113.751  0.00  0.00    +0.132 C 
ATOM     21  C   UNL     1     119.195 122.046 114.167  0.00  0.00    +0.018 C 
ATOM     22  C   UNL     1     122.037 123.027 114.721  0.00  0.00    +0.032 C 
ATOM     23  C   UNL     1     122.429 125.707 112.273  0.00  0.00    +0.176 C 
ATOM     24  C   UNL     1     122.956 124.146 114.232  0.00  0.00    +0.006 C 
ATOM     25  C   UNL     1     122.133 125.316 113.722  0.00  0.00    +0.045 C 
ENDROOT
BRANCH  23  26
ATOM     26  C   UNL     1     123.705 126.574 112.175  0.00  0.00    +0.041 C 
ATOM     27  C   UNL     1     124.839 125.898 111.409  0.00  0.00    +0.007 C 
ENDBRANCH  23  26
BRANCH  10  28
ATOM     28  O   UNL     1     119.303 121.302 103.755  0.00  0.00    -0.345 OA
BRANCH  28  30
ATOM     29  O   UNL     1     120.529 119.397 102.884  0.00  0.00    -0.343 OA
ATOM     30  C   UNL     1     120.223 120.789 102.779  0.00  0.00    +0.282 C 
ATOM     31  C   UNL     1     121.475 121.654 102.499  0.00  0.00    +0.205 C 
ATOM     32  C   UNL     1     122.531 121.407 103.593  0.00  0.00    +0.183 C 
ATOM     33  C   UNL     1     122.825 119.909 103.836  0.00  0.00    +0.178 C 
ATOM     34  C   UNL     1     121.559 119.006 103.789  0.00  0.00    +0.150 C 
ATOM     35  C   UNL     1     121.937 117.568 103.441  0.00  0.00    +0.041 C 
BRANCH  31  36
ATOM     36  O   UNL     1     121.950 121.543 101.136  0.00  0.00    -0.372 OA
ATOM     37  C   UNL     1     121.072 121.819 100.058  0.00  0.00    +0.194 C 
ENDBRANCH  31  36
BRANCH  32  38
ATOM     38  O   UNL     1     123.686 122.263 103.528  0.00  0.00    -0.374 OA
ATOM     39  C   UNL     1     123.730 123.391 104.383  0.00  0.00    +0.194 C 
ENDBRANCH  32  38
BRANCH  33  40
ATOM     40  O   UNL     1     123.635 119.691 105.012  0.00  0.00    -0.375 OA
ATOM     41  C   UNL     1     123.088 120.071 106.267  0.00  0.00    +0.194 C 
ENDBRANCH  33  40
ENDBRANCH  28  30
ENDBRANCH  10  28
BRANCH  20  42
ATOM     42  O   UNL     1     122.652 121.834 112.639  0.00  0.00    -0.347 OA
BRANCH  42  44
ATOM     43  O   UNL     1     124.777 120.833 113.111  0.00  0.00    -0.347 OA
ATOM     44  C   UNL     1     123.479 120.655 112.559  0.00  0.00    +0.251 C 
ATOM     45  C   UNL     1     123.334 120.030 111.176  0.00  0.00    +0.063 C 
ATOM     46  C   UNL     1     124.534 120.240 110.286  0.00  0.00    +0.026 C 
ATOM     47  C   UNL     1     125.872 119.973 110.980  0.00  0.00    +0.085 C 
ATOM     48  C   UNL     1     125.970 120.712 112.336  0.00  0.00    +0.135 C 
ATOM     49  C   UNL     1     126.699 122.055 112.177  0.00  0.00    +0.039 C 
BRANCH  47  50
ATOM     50  N   UNL     1     126.229 118.528 111.021  0.00  0.00    -0.303 NA
ATOM     51  C   UNL     1     126.887 118.207 112.298  0.00  0.00    +0.105 C 
ATOM     52  C   UNL     1     125.120 117.596 110.813  0.00  0.00    +0.105 C 
ENDBRANCH  47  50
ENDBRANCH  42  44
ENDBRANCH  20  42
TORSDOF 9
ENDMDL
MODEL 12
REMARK VINA RESULT:      -7.9     27.806     31.155
REMARK  Name = 
REMARK  18 active torsions:
REMARK  status: ('A' for Active; 'I' for Inactive)
REMARK    1  A    between atoms: O_1  and  C_18
REMARK    2  A    between atoms: O_1  and  C_26
REMARK    3  A    between atoms: O_5  and  C_29
REMARK    4  A    between atoms: O_5  and  C_43
REMARK    5  A    between atoms: O_6  and  C_30
REMARK    6  A    between atoms: O_6  and  C_40
REMARK    7  A    between atoms: O_8  and  C_31
REMARK    8  A    between atoms: O_8  and  C_47
REMARK    9  A    between atoms: O_9  and  C_32
REMARK   10  A    between atoms: O_9  and  C_49
REMARK   11  A    between atoms: N_11  and  C_45
REMARK   12  A    between atoms: N_11  and  C_51
REMARK   13  A    between atoms: N_11  and  C_52
REMARK   14  A    between atoms: C_27  and  C_34
REMARK   15  A    between atoms: C_33  and  C_39
REMARK   16  A    between atoms: C_36  and  C_41
REMARK   17  A    between atoms: C_41  and  C_48
REMARK   18  A    between atoms: C_46  and  C_50
REMARK                            x       y       z     vdW  Elec       q    Type
REMARK                         _______ _______ _______ _____ _____    ______ ____
ROOT
ATOM      1  O   UNL     1     128.205 126.925 129.036  0.00  0.00    -0.292 OA
ATOM      2  O   UNL     1     126.416 128.878 123.096  0.00  0.00    -0.461 OA
ATOM      3  O   UNL     1     126.700 126.648 122.809  0.00  0.00    -0.251 OA
ATOM      4  C   UNL     1     127.695 123.091 126.071  0.00  0.00    +0.006 C 
ATOM      5  C   UNL     1     127.754 124.575 125.758  0.00  0.00    +0.023 C 
ATOM      6  C   UNL     1     127.928 122.886 127.549  0.00  0.00    +0.018 C 
ATOM      7  C   UNL     1     126.338 125.103 126.136  0.00  0.00    +0.027 C 
ATOM      8  C   UNL     1     128.566 122.148 125.277  0.00  0.00    +0.036 C 
ATOM      9  C   UNL     1     128.254 121.394 127.593  0.00  0.00    +0.039 C 
ATOM     10  C   UNL     1     129.126 121.198 126.326  0.00  0.00    +0.122 C 
ATOM     11  C   UNL     1     126.650 126.607 125.856  0.00  0.00    +0.040 C 
ATOM     12  C   UNL     1     128.570 125.647 126.580  0.00  0.00    -0.015 C 
ATOM     13  C   UNL     1     126.733 123.571 128.214  0.00  0.00    -0.027 C 
ATOM     14  C   UNL     1     126.026 124.560 127.589  0.00  0.00    -0.026 C 
ATOM     15  C   UNL     1     127.845 126.801 126.738  0.00  0.00    -0.004 C 
ATOM     16  C   UNL     1     125.707 127.422 124.937  0.00  0.00    +0.129 C 
ATOM     17  C   UNL     1     127.992 127.582 128.002  0.00  0.00    +0.164 C 
ATOM     18  C   UNL     1     127.854 129.113 128.145  0.00  0.00    +0.086 C 
ATOM     19  C   UNL     1     126.320 127.589 123.509  0.00  0.00    +0.308 C 
ATOM     20  C   UNL     1     128.788 130.055 127.351  0.00  0.00    +0.132 C 
ATOM     21  C   UNL     1     126.447 129.615 128.442  0.00  0.00    +0.018 C 
ATOM     22  C   UNL     1     128.208 131.229 126.534  0.00  0.00    +0.032 C 
ATOM     23  C   UNL     1     127.700 129.505 123.356  0.00  0.00    +0.176 C 
ATOM     24  C   UNL     1     128.513 131.255 125.036  0.00  0.00    +0.006 C 
ATOM     25  C   UNL     1     127.342 130.692 124.251  0.00  0.00    +0.045 C 
ENDROOT
BRANCH  23  26
ATOM     26  C   UNL     1     128.348 129.973 122.033  0.00  0.00    +0.041 C 
ATOM     27  C   UNL     1     128.980 128.839 121.232  0.00  0.00    +0.007 C 
ENDBRANCH  23  26
BRANCH  10  28
ATOM     28  O   UNL     1     129.130 119.851 125.905  0.00  0.00    -0.345 OA
BRANCH  28  30
ATOM     29  O   UNL     1     131.468 119.520 126.462  0.00  0.00    -0.343 OA
ATOM     30  C   UNL     1     130.164 118.951 126.335  0.00  0.00    +0.282 C 
ATOM     31  C   UNL     1     130.184 117.560 125.657  0.00  0.00    +0.205 C 
ATOM     32  C   UNL     1     130.873 117.663 124.283  0.00  0.00    +0.183 C 
ATOM     33  C   UNL     1     132.245 118.374 124.335  0.00  0.00    +0.178 C 
ATOM     34  C   UNL     1     132.280 119.600 125.292  0.00  0.00    +0.150 C 
ATOM     35  C   UNL     1     133.707 119.879 125.757  0.00  0.00    +0.041 C 
BRANCH  31  36
ATOM     36  O   UNL     1     130.676 116.512 126.525  0.00  0.00    -0.372 OA
ATOM     37  C   UNL     1     130.210 116.426 127.862  0.00  0.00    +0.194 C 
ENDBRANCH  31  36
BRANCH  32  38
ATOM     38  O   UNL     1     130.825 116.464 123.488  0.00  0.00    -0.374 OA
ATOM     39  C   UNL     1     129.664 116.221 122.716  0.00  0.00    +0.194 C 
ENDBRANCH  32  38
BRANCH  33  40
ATOM     40  O   UNL     1     132.764 118.666 123.019  0.00  0.00    -0.375 OA
ATOM     41  C   UNL     1     133.840 117.869 122.545  0.00  0.00    +0.194 C 
ENDBRANCH  33  40
ENDBRANCH  28  30
ENDBRANCH  10  28
BRANCH  20  42
ATOM     42  O   UNL     1     129.769 129.309 126.652  0.00  0.00    -0.347 OA
BRANCH  42  44
ATOM     43  O   UNL     1     131.349 130.583 127.924  0.00  0.00    -0.347 OA
ATOM     44  C   UNL     1     131.086 129.367 127.237  0.00  0.00    +0.251 C 
ATOM     45  C   UNL     1     132.106 128.839 126.235  0.00  0.00    +0.063 C 
ATOM     46  C   UNL     1     132.957 129.917 125.608  0.00  0.00    +0.026 C 
ATOM     47  C   UNL     1     133.503 130.934 126.613  0.00  0.00    +0.085 C 
ATOM     48  C   UNL     1     132.387 131.483 127.535  0.00  0.00    +0.135 C 
ATOM     49  C   UNL     1     131.833 132.811 126.996  0.00  0.00    +0.039 C 
BRANCH  47  50
ATOM     50  N   UNL     1     134.726 130.461 127.316  0.00  0.00    -0.303 NA
ATOM     51  C   UNL     1     135.788 130.167 126.340  0.00  0.00    +0.105 C 
ATOM     52  C   UNL     1     135.259 131.365 128.337  0.00  0.00    +0.105 C 
ENDBRANCH  47  50
ENDBRANCH  42  44
ENDBRANCH  20  42
TORSDOF 9
ENDMDL
MODEL 13
REMARK VINA RESULT:      -7.9     21.464     25.864
REMARK  Name = 
REMARK  18 active torsions:
REMARK  status: ('A' for Active; 'I' for Inactive)
REMARK    1  A    between atoms: O_1  and  C_18
REMARK    2  A    between atoms: O_1  and  C_26
REMARK    3  A    between atoms: O_5  and  C_29
REMARK    4  A    between atoms: O_5  and  C_43
REMARK    5  A    between atoms: O_6  and  C_30
REMARK    6  A    between atoms: O_6  and  C_40
REMARK    7  A    between atoms: O_8  and  C_31
REMARK    8  A    between atoms: O_8  and  C_47
REMARK    9  A    between atoms: O_9  and  C_32
REMARK   10  A    between atoms: O_9  and  C_49
REMARK   11  A    between atoms: N_11  and  C_45
REMARK   12  A    between atoms: N_11  and  C_51
REMARK   13  A    between atoms: N_11  and  C_52
REMARK   14  A    between atoms: C_27  and  C_34
REMARK   15  A    between atoms: C_33  and  C_39
REMARK   16  A    between atoms: C_36  and  C_41
REMARK   17  A    between atoms: C_41  and  C_48
REMARK   18  A    between atoms: C_46  and  C_50
REMARK                            x       y       z     vdW  Elec       q    Type
REMARK                         _______ _______ _______ _____ _____    ______ ____
ROOT
ATOM      1  O   UNL     1     150.785 129.849 139.099  0.00  0.00    -0.292 OA
ATOM      2  O   UNL     1     144.947 131.288 141.577  0.00  0.00    -0.461 OA
ATOM      3  O   UNL     1     146.319 132.677 142.727  0.00  0.00    -0.251 OA
ATOM      4  C   UNL     1     151.141 133.562 142.235  0.00  0.00    +0.006 C 
ATOM      5  C   UNL     1     149.998 132.596 141.980  0.00  0.00    +0.023 C 
ATOM      6  C   UNL     1     152.328 133.159 141.392  0.00  0.00    +0.018 C 
ATOM      7  C   UNL     1     149.343 133.116 140.666  0.00  0.00    +0.027 C 
ATOM      8  C   UNL     1     151.581 133.806 143.658  0.00  0.00    +0.036 C 
ATOM      9  C   UNL     1     153.454 133.935 142.076  0.00  0.00    +0.039 C 
ATOM     10  C   UNL     1     153.100 133.793 143.579  0.00  0.00    +0.122 C 
ATOM     11  C   UNL     1     148.309 131.955 140.535  0.00  0.00    +0.040 C 
ATOM     12  C   UNL     1     150.160 131.096 141.517  0.00  0.00    -0.015 C 
ATOM     13  C   UNL     1     151.845 133.348 139.953  0.00  0.00    -0.027 C 
ATOM     14  C   UNL     1     150.518 133.325 139.627  0.00  0.00    -0.026 C 
ATOM     15  C   UNL     1     149.228 130.773 140.564  0.00  0.00    -0.004 C 
ATOM     16  C   UNL     1     146.810 132.289 140.335  0.00  0.00    +0.129 C 
ATOM     17  C   UNL     1     149.602 129.817 139.480  0.00  0.00    +0.164 C 
ATOM     18  C   UNL     1     148.648 128.838 138.763  0.00  0.00    +0.086 C 
ATOM     19  C   UNL     1     146.014 132.122 141.670  0.00  0.00    +0.308 C 
ATOM     20  C   UNL     1     147.889 127.760 139.572  0.00  0.00    +0.132 C 
ATOM     21  C   UNL     1     147.961 129.390 137.522  0.00  0.00    +0.018 C 
ATOM     22  C   UNL     1     146.367 127.575 139.396  0.00  0.00    +0.032 C 
ATOM     23  C   UNL     1     145.216 129.912 141.955  0.00  0.00    +0.176 C 
ATOM     24  C   UNL     1     145.496 127.733 140.642  0.00  0.00    +0.006 C 
ATOM     25  C   UNL     1     144.887 129.123 140.686  0.00  0.00    +0.045 C 
ENDROOT
BRANCH  23  26
ATOM     26  C   UNL     1     144.308 129.489 143.131  0.00  0.00    +0.041 C 
ATOM     27  C   UNL     1     143.088 130.389 143.309  0.00  0.00    +0.007 C 
ENDBRANCH  23  26
BRANCH  10  28
ATOM     28  O   UNL     1     153.701 134.812 144.349  0.00  0.00    -0.345 OA
BRANCH  28  30
ATOM     29  O   UNL     1     155.341 136.577 144.056  0.00  0.00    -0.343 OA
ATOM     30  C   UNL     1     154.036 136.078 143.758  0.00  0.00    +0.282 C 
ATOM     31  C   UNL     1     152.948 137.175 143.832  0.00  0.00    +0.205 C 
ATOM     32  C   UNL     1     152.975 137.840 145.221  0.00  0.00    +0.183 C 
ATOM     33  C   UNL     1     154.386 138.302 145.653  0.00  0.00    +0.178 C 
ATOM     34  C   UNL     1     155.517 137.306 145.269  0.00  0.00    +0.150 C 
ATOM     35  C   UNL     1     156.858 138.028 145.166  0.00  0.00    +0.041 C 
BRANCH  31  36
ATOM     36  O   UNL     1     152.979 138.083 142.704  0.00  0.00    -0.372 OA
ATOM     37  C   UNL     1     152.754 137.588 141.394  0.00  0.00    +0.194 C 
ENDBRANCH  31  36
BRANCH  32  38
ATOM     38  O   UNL     1     151.912 138.779 145.466  0.00  0.00    -0.374 OA
ATOM     39  C   UNL     1     150.579 138.341 145.281  0.00  0.00    +0.194 C 
ENDBRANCH  32  38
BRANCH  33  40
ATOM     40  O   UNL     1     154.431 138.707 147.039  0.00  0.00    -0.375 OA
ATOM     41  C   UNL     1     154.613 140.089 147.315  0.00  0.00    +0.194 C 
ENDBRANCH  33  40
ENDBRANCH  28  30
ENDBRANCH  10  28
BRANCH  20  42
ATOM     42  O   UNL     1     148.305 127.770 140.926  0.00  0.00    -0.347 OA
BRANCH  42  44
ATOM     43  O   UNL     1     150.071 127.009 142.355  0.00  0.00    -0.347 OA
ATOM     44  C   UNL     1     149.195 126.692 141.281  0.00  0.00    +0.251 C 
ATOM     45  C   UNL     1     149.764 126.070 140.011  0.00  0.00    +0.063 C 
ATOM     46  C   UNL     1     151.209 126.422 139.757  0.00  0.00    +0.026 C 
ATOM     47  C   UNL     1     152.101 126.299 140.994  0.00  0.00    +0.085 C 
ATOM     48  C   UNL     1     151.492 127.030 142.214  0.00  0.00    +0.135 C 
ATOM     49  C   UNL     1     152.068 128.448 142.349  0.00  0.00    +0.039 C 
BRANCH  47  50
ATOM     50  N   UNL     1     152.549 124.903 141.254  0.00  0.00    -0.303 NA
ATOM     51  C   UNL     1     152.872 124.232 139.984  0.00  0.00    +0.105 C 
ATOM     52  C   UNL     1     153.687 124.763 142.165  0.00  0.00    +0.105 C 
ENDBRANCH  47  50
ENDBRANCH  42  44
ENDBRANCH  20  42
TORSDOF 9
ENDMDL
MODEL 14
REMARK VINA RESULT:      -7.9     32.955     36.417
REMARK  Name = 
REMARK  18 active torsions:
REMARK  status: ('A' for Active; 'I' for Inactive)
REMARK    1  A    between atoms: O_1  and  C_18
REMARK    2  A    between atoms: O_1  and  C_26
REMARK    3  A    between atoms: O_5  and  C_29
REMARK    4  A    between atoms: O_5  and  C_43
REMARK    5  A    between atoms: O_6  and  C_30
REMARK    6  A    between atoms: O_6  and  C_40
REMARK    7  A    between atoms: O_8  and  C_31
REMARK    8  A    between atoms: O_8  and  C_47
REMARK    9  A    between atoms: O_9  and  C_32
REMARK   10  A    between atoms: O_9  and  C_49
REMARK   11  A    between atoms: N_11  and  C_45
REMARK   12  A    between atoms: N_11  and  C_51
REMARK   13  A    between atoms: N_11  and  C_52
REMARK   14  A    between atoms: C_27  and  C_34
REMARK   15  A    between atoms: C_33  and  C_39
REMARK   16  A    between atoms: C_36  and  C_41
REMARK   17  A    between atoms: C_41  and  C_48
REMARK   18  A    between atoms: C_46  and  C_50
REMARK                            x       y       z     vdW  Elec       q    Type
REMARK                         _______ _______ _______ _____ _____    ______ ____
ROOT
ATOM      1  O   UNL     1     112.671 121.513 129.007  0.00  0.00    -0.292 OA
ATOM      2  O   UNL     1     113.466 118.046 123.563  0.00  0.00    -0.461 OA
ATOM      3  O   UNL     1     114.052 120.132 122.900  0.00  0.00    -0.251 OA
ATOM      4  C   UNL     1     114.556 124.300 125.481  0.00  0.00    +0.006 C 
ATOM      5  C   UNL     1     113.927 122.920 125.413  0.00  0.00    +0.023 C 
ATOM      6  C   UNL     1     114.446 124.826 126.893  0.00  0.00    +0.018 C 
ATOM      7  C   UNL     1     115.040 121.966 125.942  0.00  0.00    +0.027 C 
ATOM      8  C   UNL     1     114.098 125.354 124.502  0.00  0.00    +0.036 C 
ATOM      9  C   UNL     1     114.718 126.314 126.675  0.00  0.00    +0.039 C 
ATOM     10  C   UNL     1     113.964 126.608 125.352  0.00  0.00    +0.122 C 
ATOM     11  C   UNL     1     114.170 120.670 125.898  0.00  0.00    +0.040 C 
ATOM     12  C   UNL     1     112.779 122.396 126.361  0.00  0.00    -0.015 C 
ATOM     13  C   UNL     1     115.301 123.863 127.718  0.00  0.00    -0.027 C 
ATOM     14  C   UNL     1     115.563 122.588 127.299  0.00  0.00    -0.026 C 
ATOM     15  C   UNL     1     113.009 121.098 126.741  0.00  0.00    -0.004 C 
ATOM     16  C   UNL     1     114.713 119.414 125.172  0.00  0.00    +0.129 C 
ATOM     17  C   UNL     1     112.597 120.660 128.107  0.00  0.00    +0.164 C 
ATOM     18  C   UNL     1     112.142 119.239 128.507  0.00  0.00    +0.086 C 
ATOM     19  C   UNL     1     114.056 119.252 123.762  0.00  0.00    +0.308 C 
ATOM     20  C   UNL     1     110.903 118.604 127.834  0.00  0.00    +0.132 C 
ATOM     21  C   UNL     1     113.254 118.299 128.950  0.00  0.00    +0.018 C 
ATOM     22  C   UNL     1     110.974 117.176 127.249  0.00  0.00    +0.032 C 
ATOM     23  C   UNL     1     112.045 118.009 123.860  0.00  0.00    +0.176 C 
ATOM     24  C   UNL     1     110.654 117.014 125.764  0.00  0.00    +0.006 C 
ATOM     25  C   UNL     1     111.937 116.946 124.954  0.00  0.00    +0.045 C 
ENDROOT
BRANCH  23  26
ATOM     26  C   UNL     1     111.242 117.604 122.603  0.00  0.00    +0.041 C 
ATOM     27  C   UNL     1     110.647 118.794 121.855  0.00  0.00    +0.007 C 
ENDBRANCH  23  26
BRANCH  10  28
ATOM     28  O   UNL     1     114.469 127.763 124.716  0.00  0.00    -0.345 OA
BRANCH  28  30
ATOM     29  O   UNL     1     113.210 129.759 124.151  0.00  0.00    -0.343 OA
ATOM     30  C   UNL     1     114.020 129.070 125.106  0.00  0.00    +0.282 C 
ATOM     31  C   UNL     1     115.080 129.989 125.761  0.00  0.00    +0.205 C 
ATOM     32  C   UNL     1     115.952 130.636 124.669  0.00  0.00    +0.183 C 
ATOM     33  C   UNL     1     115.130 131.303 123.542  0.00  0.00    +0.178 C 
ATOM     34  C   UNL     1     113.869 130.495 123.123  0.00  0.00    +0.150 C 
ATOM     35  C   UNL     1     112.826 131.414 122.493  0.00  0.00    +0.041 C 
BRANCH  31  36
ATOM     36  O   UNL     1     114.517 130.901 126.734  0.00  0.00    -0.372 OA
ATOM     37  C   UNL     1     113.537 130.441 127.649  0.00  0.00    +0.194 C 
ENDBRANCH  31  36
BRANCH  32  38
ATOM     38  O   UNL     1     117.070 131.399 125.157  0.00  0.00    -0.374 OA
ATOM     39  C   UNL     1     116.881 132.783 125.393  0.00  0.00    +0.194 C 
ENDBRANCH  32  38
BRANCH  33  40
ATOM     40  O   UNL     1     115.952 131.696 122.421  0.00  0.00    -0.375 OA
ATOM     41  C   UNL     1     116.350 130.682 121.510  0.00  0.00    +0.194 C 
ENDBRANCH  33  40
ENDBRANCH  28  30
ENDBRANCH  10  28
BRANCH  20  42
ATOM     42  O   UNL     1     110.270 119.536 126.975  0.00  0.00    -0.347 OA
BRANCH  42  44
ATOM     43  O   UNL     1     108.025 119.047 127.653  0.00  0.00    -0.347 OA
ATOM     44  C   UNL     1     109.018 120.048 127.476  0.00  0.00    +0.251 C 
ATOM     45  C   UNL     1     108.664 121.330 126.731  0.00  0.00    +0.063 C 
ATOM     46  C   UNL     1     107.544 121.162 125.733  0.00  0.00    +0.026 C 
ATOM     47  C   UNL     1     106.347 120.376 126.275  0.00  0.00    +0.085 C 
ATOM     48  C   UNL     1     106.788 119.049 126.939  0.00  0.00    +0.135 C 
ATOM     49  C   UNL     1     106.685 117.879 125.949  0.00  0.00    +0.039 C 
BRANCH  47  50
ATOM     50  N   UNL     1     105.420 121.211 127.087  0.00  0.00    -0.303 NA
ATOM     51  C   UNL     1     104.569 122.024 126.204  0.00  0.00    +0.105 C 
ATOM     52  C   UNL     1     104.566 120.479 128.024  0.00  0.00    +0.105 C 
ENDBRANCH  47  50
ENDBRANCH  42  44
ENDBRANCH  20  42
TORSDOF 9
ENDMDL
MODEL 15
REMARK VINA RESULT:      -7.9     22.730     26.963
REMARK  Name = 
REMARK  18 active torsions:
REMARK  status: ('A' for Active; 'I' for Inactive)
REMARK    1  A    between atoms: O_1  and  C_18
REMARK    2  A    between atoms: O_1  and  C_26
REMARK    3  A    between atoms: O_5  and  C_29
REMARK    4  A    between atoms: O_5  and  C_43
REMARK    5  A    between atoms: O_6  and  C_30
REMARK    6  A    between atoms: O_6  and  C_40
REMARK    7  A    between atoms: O_8  and  C_31
REMARK    8  A    between atoms: O_8  and  C_47
REMARK    9  A    between atoms: O_9  and  C_32
REMARK   10  A    between atoms: O_9  and  C_49
REMARK   11  A    between atoms: N_11  and  C_45
REMARK   12  A    between atoms: N_11  and  C_51
REMARK   13  A    between atoms: N_11  and  C_52
REMARK   14  A    between atoms: C_27  and  C_34
REMARK   15  A    between atoms: C_33  and  C_39
REMARK   16  A    between atoms: C_36  and  C_41
REMARK   17  A    between atoms: C_41  and  C_48
REMARK   18  A    between atoms: C_46  and  C_50
REMARK                            x       y       z     vdW  Elec       q    Type
REMARK                         _______ _______ _______ _____ _____    ______ ____
ROOT
ATOM      1  O   UNL     1     150.657 130.316 139.357  0.00  0.00    -0.292 OA
ATOM      2  O   UNL     1     144.790 128.863 141.757  0.00  0.00    -0.461 OA
ATOM      3  O   UNL     1     144.772 127.804 139.755  0.00  0.00    -0.251 OA
ATOM      4  C   UNL     1     148.326 127.232 136.390  0.00  0.00    +0.006 C 
ATOM      5  C   UNL     1     147.811 128.046 137.563  0.00  0.00    +0.023 C 
ATOM      6  C   UNL     1     149.776 127.577 136.145  0.00  0.00    +0.018 C 
ATOM      7  C   UNL     1     148.295 127.260 138.817  0.00  0.00    +0.027 C 
ATOM      8  C   UNL     1     147.561 127.269 135.090  0.00  0.00    +0.036 C 
ATOM      9  C   UNL     1     149.978 127.021 134.736  0.00  0.00    +0.039 C 
ATOM     10  C   UNL     1     148.647 127.388 134.030  0.00  0.00    +0.122 C 
ATOM     11  C   UNL     1     147.777 128.297 139.863  0.00  0.00    +0.040 C 
ATOM     12  C   UNL     1     148.370 129.453 138.008  0.00  0.00    -0.015 C 
ATOM     13  C   UNL     1     150.491 127.109 137.413  0.00  0.00    -0.027 C 
ATOM     14  C   UNL     1     149.835 126.970 138.604  0.00  0.00    -0.026 C 
ATOM     15  C   UNL     1     148.463 129.535 139.374  0.00  0.00    -0.004 C 
ATOM     16  C   UNL     1     146.886 127.816 141.036  0.00  0.00    +0.129 C 
ATOM     17  C   UNL     1     149.581 130.319 139.979  0.00  0.00    +0.164 C 
ATOM     18  C   UNL     1     149.533 131.083 141.320  0.00  0.00    +0.086 C 
ATOM     19  C   UNL     1     145.381 128.145 140.769  0.00  0.00    +0.308 C 
ATOM     20  C   UNL     1     148.506 132.219 141.530  0.00  0.00    +0.132 C 
ATOM     21  C   UNL     1     149.939 130.275 142.544  0.00  0.00    +0.018 C 
ATOM     22  C   UNL     1     147.620 132.251 142.794  0.00  0.00    +0.032 C 
ATOM     23  C   UNL     1     144.795 130.301 141.549  0.00  0.00    +0.176 C 
ATOM     24  C   UNL     1     146.106 132.240 142.585  0.00  0.00    +0.006 C 
ATOM     25  C   UNL     1     145.561 130.833 142.761  0.00  0.00    +0.045 C 
ENDROOT
BRANCH  23  26
ATOM     26  C   UNL     1     143.349 130.845 141.515  0.00  0.00    +0.041 C 
ATOM     27  C   UNL     1     142.502 130.389 142.699  0.00  0.00    +0.007 C 
ENDBRANCH  23  26
BRANCH  10  28
ATOM     28  O   UNL     1     148.414 126.566 132.907  0.00  0.00    -0.345 OA
BRANCH  28  30
ATOM     29  O   UNL     1     148.187 126.799 130.502  0.00  0.00    -0.343 OA
ATOM     30  C   UNL     1     149.041 126.853 131.646  0.00  0.00    +0.282 C 
ATOM     31  C   UNL     1     150.413 126.181 131.397  0.00  0.00    +0.205 C 
ATOM     32  C   UNL     1     150.202 124.726 130.939  0.00  0.00    +0.183 C 
ATOM     33  C   UNL     1     149.197 124.588 129.772  0.00  0.00    +0.178 C 
ATOM     34  C   UNL     1     147.964 125.529 129.893  0.00  0.00    +0.150 C 
ATOM     35  C   UNL     1     147.353 125.793 128.519  0.00  0.00    +0.041 C 
BRANCH  31  36
ATOM     36  O   UNL     1     151.292 126.976 130.567  0.00  0.00    -0.372 OA
ATOM     37  C   UNL     1     152.140 127.944 131.162  0.00  0.00    +0.194 C 
ENDBRANCH  31  36
BRANCH  32  38
ATOM     38  O   UNL     1     151.406 123.947 130.815  0.00  0.00    -0.374 OA
ATOM     39  C   UNL     1     152.156 124.063 129.620  0.00  0.00    +0.194 C 
ENDBRANCH  32  38
BRANCH  33  40
ATOM     40  O   UNL     1     148.840 123.212 129.513  0.00  0.00    -0.375 OA
ATOM     41  C   UNL     1     148.817 122.782 128.160  0.00  0.00    +0.194 C 
ENDBRANCH  33  40
ENDBRANCH  28  30
ENDBRANCH  10  28
BRANCH  20  42
ATOM     42  O   UNL     1     147.793 132.473 140.332  0.00  0.00    -0.347 OA
BRANCH  42  44
ATOM     43  O   UNL     1     147.994 133.694 138.281  0.00  0.00    -0.347 OA
ATOM     44  C   UNL     1     148.129 133.723 139.696  0.00  0.00    +0.251 C 
ATOM     45  C   UNL     1     149.410 134.274 140.313  0.00  0.00    +0.063 C 
ATOM     46  C   UNL     1     150.619 134.146 139.419  0.00  0.00    +0.026 C 
ATOM     47  C   UNL     1     150.363 134.570 137.971  0.00  0.00    +0.085 C 
ATOM     48  C   UNL     1     149.093 133.899 137.394  0.00  0.00    +0.135 C 
ATOM     49  C   UNL     1     149.452 132.628 136.609  0.00  0.00    +0.039 C 
BRANCH  47  50
ATOM     50  N   UNL     1     150.445 136.042 137.771  0.00  0.00    -0.303 NA
ATOM     51  C   UNL     1     151.742 136.399 137.173  0.00  0.00    +0.105 C 
ATOM     52  C   UNL     1     149.375 136.632 136.964  0.00  0.00    +0.105 C 
ENDBRANCH  47  50
ENDBRANCH  42  44
ENDBRANCH  20  42
TORSDOF 9
ENDMDL
MODEL 16
REMARK VINA RESULT:      -7.9    124.381    129.312
REMARK  Name = 
REMARK  18 active torsions:
REMARK  status: ('A' for Active; 'I' for Inactive)
REMARK    1  A    between atoms: O_1  and  C_18
REMARK    2  A    between atoms: O_1  and  C_26
REMARK    3  A    between atoms: O_5  and  C_29
REMARK    4  A    between atoms: O_5  and  C_43
REMARK    5  A    between atoms: O_6  and  C_30
REMARK    6  A    between atoms: O_6  and  C_40
REMARK    7  A    between atoms: O_8  and  C_31
REMARK    8  A    between atoms: O_8  and  C_47
REMARK    9  A    between atoms: O_9  and  C_32
REMARK   10  A    between atoms: O_9  and  C_49
REMARK   11  A    between atoms: N_11  and  C_45
REMARK   12  A    between atoms: N_11  and  C_51
REMARK   13  A    between atoms: N_11  and  C_52
REMARK   14  A    between atoms: C_27  and  C_34
REMARK   15  A    between atoms: C_33  and  C_39
REMARK   16  A    between atoms: C_36  and  C_41
REMARK   17  A    between atoms: C_41  and  C_48
REMARK   18  A    between atoms: C_46  and  C_50
REMARK                            x       y       z     vdW  Elec       q    Type
REMARK                         _______ _______ _______ _____ _____    ______ ____
ROOT
ATOM      1  O   UNL     1     107.828 136.531  31.186  0.00  0.00    -0.292 OA
ATOM      2  O   UNL     1     108.028 130.466  33.526  0.00  0.00    -0.461 OA
ATOM      3  O   UNL     1     109.450 130.355  31.765  0.00  0.00    -0.251 OA
ATOM      4  C   UNL     1     111.116 133.882  28.754  0.00  0.00    +0.006 C 
ATOM      5  C   UNL     1     110.028 133.452  29.721  0.00  0.00    +0.023 C 
ATOM      6  C   UNL     1     111.011 135.370  28.519  0.00  0.00    +0.018 C 
ATOM      7  C   UNL     1     110.607 133.796  31.126  0.00  0.00    +0.027 C 
ATOM      8  C   UNL     1     111.238 133.160  27.433  0.00  0.00    +0.036 C 
ATOM      9  C   UNL     1     111.854 135.530  27.255  0.00  0.00    +0.039 C 
ATOM     10  C   UNL     1     111.468 134.278  26.427  0.00  0.00    +0.122 C 
ATOM     11  C   UNL     1     109.328 133.396  31.926  0.00  0.00    +0.040 C 
ATOM     12  C   UNL     1     108.643 134.183  29.916  0.00  0.00    -0.015 C 
ATOM     13  C   UNL     1     111.308 135.986  29.887  0.00  0.00    -0.027 C 
ATOM     14  C   UNL     1     111.125 135.289  31.049  0.00  0.00    -0.026 C 
ATOM     15  C   UNL     1     108.307 134.253  31.244  0.00  0.00    -0.004 C 
ATOM     16  C   UNL     1     109.452 132.421  33.123  0.00  0.00    +0.129 C 
ATOM     17  C   UNL     1     107.566 135.450  31.741  0.00  0.00    +0.164 C 
ATOM     18  C   UNL     1     106.554 135.473  32.907  0.00  0.00    +0.086 C 
ATOM     19  C   UNL     1     108.995 130.980  32.724  0.00  0.00    +0.308 C 
ATOM     20  C   UNL     1     105.278 134.602  32.844  0.00  0.00    +0.132 C 
ATOM     21  C   UNL     1     107.151 135.737  34.283  0.00  0.00    +0.018 C 
ATOM     22  C   UNL     1     104.887 133.697  34.033  0.00  0.00    +0.032 C 
ATOM     23  C   UNL     1     106.672 130.668  33.046  0.00  0.00    +0.176 C 
ATOM     24  C   UNL     1     104.748 132.201  33.755  0.00  0.00    +0.006 C 
ATOM     25  C   UNL     1     106.012 131.469  34.170  0.00  0.00    +0.045 C 
ENDROOT
BRANCH  23  26
ATOM     26  C   UNL     1     105.966 129.310  32.836  0.00  0.00    +0.041 C 
ATOM     27  C   UNL     1     105.540 129.065  31.392  0.00  0.00    +0.007 C 
ENDBRANCH  23  26
BRANCH  10  28
ATOM     28  O   UNL     1     112.459 133.964  25.471  0.00  0.00    -0.345 OA
BRANCH  28  30
ATOM     29  O   UNL     1     114.209 132.423  24.800  0.00  0.00    -0.343 OA
ATOM     30  C   UNL     1     112.867 132.604  25.257  0.00  0.00    +0.282 C 
ATOM     31  C   UNL     1     111.858 131.697  24.513  0.00  0.00    +0.205 C 
ATOM     32  C   UNL     1     111.957 131.944  22.997  0.00  0.00    +0.183 C 
ATOM     33  C   UNL     1     113.404 131.874  22.457  0.00  0.00    +0.178 C 
ATOM     34  C   UNL     1     114.457 132.523  23.399  0.00  0.00    +0.150 C 
ATOM     35  C   UNL     1     115.842 131.932  23.148  0.00  0.00    +0.041 C 
BRANCH  31  36
ATOM     36  O   UNL     1     111.928 130.311  24.927  0.00  0.00    -0.372 OA
ATOM     37  C   UNL     1     112.367 129.986  26.235  0.00  0.00    +0.194 C 
ENDBRANCH  31  36
BRANCH  32  38
ATOM     38  O   UNL     1     110.966 131.266  22.203  0.00  0.00    -0.374 OA
ATOM     39  C   UNL     1     110.105 132.049  21.398  0.00  0.00    +0.194 C 
ENDBRANCH  32  38
BRANCH  33  40
ATOM     40  O   UNL     1     113.504 132.334  21.090  0.00  0.00    -0.375 OA
ATOM     41  C   UNL     1     113.779 131.364  20.089  0.00  0.00    +0.194 C 
ENDBRANCH  33  40
ENDBRANCH  28  30
ENDBRANCH  10  28
BRANCH  20  42
ATOM     42  O   UNL     1     105.177 133.958  31.586  0.00  0.00    -0.347 OA
BRANCH  42  44
ATOM     43  O   UNL     1     104.172 134.006  29.412  0.00  0.00    -0.347 OA
ATOM     44  C   UNL     1     104.085 134.425  30.768  0.00  0.00    +0.251 C 
ATOM     45  C   UNL     1     103.813 135.892  31.080  0.00  0.00    +0.063 C 
ATOM     46  C   UNL     1     104.280 136.840  30.002  0.00  0.00    +0.026 C 
ATOM     47  C   UNL     1     103.901 136.398  28.587  0.00  0.00    +0.085 C 
ATOM     48  C   UNL     1     104.290 134.923  28.324  0.00  0.00    +0.135 C 
ATOM     49  C   UNL     1     105.657 134.830  27.630  0.00  0.00    +0.039 C 
BRANCH  47  50
ATOM     50  N   UNL     1     102.506 136.759  28.217  0.00  0.00    -0.303 NA
ATOM     51  C   UNL     1     102.511 137.851  27.229  0.00  0.00    +0.105 C 
ATOM     52  C   UNL     1     101.683 135.662  27.703  0.00  0.00    +0.105 C 
ENDBRANCH  47  50
ENDBRANCH  42  44
ENDBRANCH  20  42
TORSDOF 9
ENDMDL
MODEL 17
REMARK VINA RESULT:      -7.9     29.477     34.062
REMARK  Name = 
REMARK  18 active torsions:
REMARK  status: ('A' for Active; 'I' for Inactive)
REMARK    1  A    between atoms: O_1  and  C_18
REMARK    2  A    between atoms: O_1  and  C_26
REMARK    3  A    between atoms: O_5  and  C_29
REMARK    4  A    between atoms: O_5  and  C_43
REMARK    5  A    between atoms: O_6  and  C_30
REMARK    6  A    between atoms: O_6  and  C_40
REMARK    7  A    between atoms: O_8  and  C_31
REMARK    8  A    between atoms: O_8  and  C_47
REMARK    9  A    between atoms: O_9  and  C_32
REMARK   10  A    between atoms: O_9  and  C_49
REMARK   11  A    between atoms: N_11  and  C_45
REMARK   12  A    between atoms: N_11  and  C_51
REMARK   13  A    between atoms: N_11  and  C_52
REMARK   14  A    between atoms: C_27  and  C_34
REMARK   15  A    between atoms: C_33  and  C_39
REMARK   16  A    between atoms: C_36  and  C_41
REMARK   17  A    between atoms: C_41  and  C_48
REMARK   18  A    between atoms: C_46  and  C_50
REMARK                            x       y       z     vdW  Elec       q    Type
REMARK                         _______ _______ _______ _____ _____    ______ ____
ROOT
ATOM      1  O   UNL     1     118.376 128.983 128.810  0.00  0.00    -0.292 OA
ATOM      2  O   UNL     1     117.096 128.856 122.435  0.00  0.00    -0.461 OA
ATOM      3  O   UNL     1     119.361 128.869 122.476  0.00  0.00    -0.251 OA
ATOM      4  C   UNL     1     122.508 128.590 126.257  0.00  0.00    +0.006 C 
ATOM      5  C   UNL     1     121.101 128.932 125.803  0.00  0.00    +0.023 C 
ATOM      6  C   UNL     1     122.526 128.457 127.762  0.00  0.00    +0.018 C 
ATOM      7  C   UNL     1     120.365 127.559 125.772  0.00  0.00    +0.027 C 
ATOM      8  C   UNL     1     123.650 129.468 125.805  0.00  0.00    +0.036 C 
ATOM      9  C   UNL     1     124.024 128.545 128.049  0.00  0.00    +0.039 C 
ATOM     10  C   UNL     1     124.498 129.638 127.056  0.00  0.00    +0.122 C 
ATOM     11  C   UNL     1     118.962 128.141 125.408  0.00  0.00    +0.040 C 
ATOM     12  C   UNL     1     120.024 129.692 126.671  0.00  0.00    -0.015 C 
ATOM     13  C   UNL     1     121.621 127.257 128.042  0.00  0.00    -0.027 C 
ATOM     14  C   UNL     1     120.656 126.858 127.159  0.00  0.00    -0.026 C 
ATOM     15  C   UNL     1     118.784 129.126 126.521  0.00  0.00    -0.004 C 
ATOM     16  C   UNL     1     118.183 127.553 124.206  0.00  0.00    +0.129 C 
ATOM     17  C   UNL     1     117.853 129.102 127.689  0.00  0.00    +0.164 C 
ATOM     18  C   UNL     1     116.311 129.159 127.623  0.00  0.00    +0.086 C 
ATOM     19  C   UNL     1     118.293 128.485 122.955  0.00  0.00    +0.308 C 
ATOM     20  C   UNL     1     115.607 130.373 126.974  0.00  0.00    +0.132 C 
ATOM     21  C   UNL     1     115.614 127.810 127.518  0.00  0.00    +0.018 C 
ATOM     22  C   UNL     1     114.502 130.165 125.916  0.00  0.00    +0.032 C 
ATOM     23  C   UNL     1     116.591 130.128 122.922  0.00  0.00    +0.176 C 
ATOM     24  C   UNL     1     114.725 130.794 124.541  0.00  0.00    +0.006 C 
ATOM     25  C   UNL     1     115.255 129.757 123.568  0.00  0.00    +0.045 C 
ENDROOT
BRANCH  23  26
ATOM     26  C   UNL     1     116.393 131.114 121.748  0.00  0.00    +0.041 C 
ATOM     27  C   UNL     1     116.471 130.447 120.378  0.00  0.00    +0.007 C 
ENDBRANCH  23  26
BRANCH  10  28
ATOM     28  O   UNL     1     125.883 129.539 126.801  0.00  0.00    -0.345 OA
BRANCH  28  30
ATOM     29  O   UNL     1     126.881 128.959 124.667  0.00  0.00    -0.343 OA
ATOM     30  C   UNL     1     126.433 129.987 125.552  0.00  0.00    +0.282 C 
ATOM     31  C   UNL     1     127.417 131.179 125.627  0.00  0.00    +0.205 C 
ATOM     32  C   UNL     1     128.813 130.675 126.037  0.00  0.00    +0.183 C 
ATOM     33  C   UNL     1     129.310 129.483 125.187  0.00  0.00    +0.178 C 
ATOM     34  C   UNL     1     128.200 128.446 124.851  0.00  0.00    +0.150 C 
ATOM     35  C   UNL     1     128.556 127.666 123.589  0.00  0.00    +0.041 C 
BRANCH  31  36
ATOM     36  O   UNL     1     127.377 132.023 124.451  0.00  0.00    -0.372 OA
ATOM     37  C   UNL     1     126.193 132.733 124.131  0.00  0.00    +0.194 C 
ENDBRANCH  31  36
BRANCH  32  38
ATOM     38  O   UNL     1     129.784 131.708 126.285  0.00  0.00    -0.374 OA
ATOM     39  C   UNL     1     130.374 131.775 127.570  0.00  0.00    +0.194 C 
ENDBRANCH  32  38
BRANCH  33  40
ATOM     40  O   UNL     1     130.505 128.880 125.731  0.00  0.00    -0.375 OA
ATOM     41  C   UNL     1     131.732 129.133 125.061  0.00  0.00    +0.194 C 
ENDBRANCH  33  40
ENDBRANCH  28  30
ENDBRANCH  10  28
BRANCH  20  42
ATOM     42  O   UNL     1     116.553 131.365 126.617  0.00  0.00    -0.347 OA
BRANCH  42  44
ATOM     43  O   UNL     1     115.083 132.962 127.631  0.00  0.00    -0.347 OA
ATOM     44  C   UNL     1     116.429 132.596 127.358  0.00  0.00    +0.251 C 
ATOM     45  C   UNL     1     117.382 133.633 126.775  0.00  0.00    +0.063 C 
ATOM     46  C   UNL     1     116.691 134.710 125.973  0.00  0.00    +0.026 C 
ATOM     47  C   UNL     1     115.447 135.284 126.655  0.00  0.00    +0.085 C 
ATOM     48  C   UNL     1     114.493 134.166 127.140  0.00  0.00    +0.135 C 
ATOM     49  C   UNL     1     113.393 133.894 126.103  0.00  0.00    +0.039 C 
BRANCH  47  50
ATOM     50  N   UNL     1     115.766 136.326 127.668  0.00  0.00    -0.303 NA
ATOM     51  C   UNL     1     116.559 137.403 127.054  0.00  0.00    +0.105 C 
ATOM     52  C   UNL     1     114.613 136.919 128.350  0.00  0.00    +0.105 C 
ENDBRANCH  47  50
ENDBRANCH  42  44
ENDBRANCH  20  42
TORSDOF 9
ENDMDL
MODEL 18
REMARK VINA RESULT:      -7.8     23.241     29.256
REMARK  Name = 
REMARK  18 active torsions:
REMARK  status: ('A' for Active; 'I' for Inactive)
REMARK    1  A    between atoms: O_1  and  C_18
REMARK    2  A    between atoms: O_1  and  C_26
REMARK    3  A    between atoms: O_5  and  C_29
REMARK    4  A    between atoms: O_5  and  C_43
REMARK    5  A    between atoms: O_6  and  C_30
REMARK    6  A    between atoms: O_6  and  C_40
REMARK    7  A    between atoms: O_8  and  C_31
REMARK    8  A    between atoms: O_8  and  C_47
REMARK    9  A    between atoms: O_9  and  C_32
REMARK   10  A    between atoms: O_9  and  C_49
REMARK   11  A    between atoms: N_11  and  C_45
REMARK   12  A    between atoms: N_11  and  C_51
REMARK   13  A    between atoms: N_11  and  C_52
REMARK   14  A    between atoms: C_27  and  C_34
REMARK   15  A    between atoms: C_33  and  C_39
REMARK   16  A    between atoms: C_36  and  C_41
REMARK   17  A    between atoms: C_41  and  C_48
REMARK   18  A    between atoms: C_46  and  C_50
REMARK                            x       y       z     vdW  Elec       q    Type
REMARK                         _______ _______ _______ _____ _____    ______ ____
ROOT
ATOM      1  O   UNL     1     132.677 118.366 128.535  0.00  0.00    -0.292 OA
ATOM      2  O   UNL     1     129.291 118.112 122.989  0.00  0.00    -0.461 OA
ATOM      3  O   UNL     1     127.758 117.458 124.524  0.00  0.00    -0.251 OA
ATOM      4  C   UNL     1     128.018 117.265 129.441  0.00  0.00    +0.006 C 
ATOM      5  C   UNL     1     128.786 117.288 128.133  0.00  0.00    +0.023 C 
ATOM      6  C   UNL     1     128.966 117.560 130.579  0.00  0.00    +0.018 C 
ATOM      7  C   UNL     1     128.878 118.800 127.770  0.00  0.00    +0.027 C 
ATOM      8  C   UNL     1     127.183 116.051 129.770  0.00  0.00    +0.036 C 
ATOM      9  C   UNL     1     128.149 117.083 131.778  0.00  0.00    +0.039 C 
ATOM     10  C   UNL     1     127.477 115.793 131.241  0.00  0.00    +0.122 C 
ATOM     11  C   UNL     1     129.771 118.605 126.504  0.00  0.00    +0.040 C 
ATOM     12  C   UNL     1     130.324 116.973 127.974  0.00  0.00    -0.015 C 
ATOM     13  C   UNL     1     129.431 118.993 130.315  0.00  0.00    -0.027 C 
ATOM     14  C   UNL     1     129.396 119.546 129.065  0.00  0.00    -0.026 C 
ATOM     15  C   UNL     1     130.917 117.848 127.100  0.00  0.00    -0.004 C 
ATOM     16  C   UNL     1     129.341 119.247 125.162  0.00  0.00    +0.129 C 
ATOM     17  C   UNL     1     132.328 118.272 127.346  0.00  0.00    +0.164 C 
ATOM     18  C   UNL     1     133.364 118.650 126.266  0.00  0.00    +0.086 C 
ATOM     19  C   UNL     1     128.703 118.184 124.210  0.00  0.00    +0.308 C 
ATOM     20  C   UNL     1     133.769 117.621 125.185  0.00  0.00    +0.132 C 
ATOM     21  C   UNL     1     133.388 120.120 125.872  0.00  0.00    +0.018 C 
ATOM     22  C   UNL     1     133.769 118.011 123.691  0.00  0.00    +0.032 C 
ATOM     23  C   UNL     1     130.328 117.103 122.874  0.00  0.00    +0.176 C 
ATOM     24  C   UNL     1     132.884 117.189 122.755  0.00  0.00    +0.006 C 
ATOM     25  C   UNL     1     131.573 117.911 122.502  0.00  0.00    +0.045 C 
ENDROOT
BRANCH  23  26
ATOM     26  C   UNL     1     129.970 116.085 121.767  0.00  0.00    +0.041 C 
ATOM     27  C   UNL     1     129.921 116.699 120.371  0.00  0.00    +0.007 C 
ENDBRANCH  23  26
BRANCH  10  28
ATOM     28  O   UNL     1     126.324 115.462 131.984  0.00  0.00    -0.345 OA
BRANCH  28  30
ATOM     29  O   UNL     1     125.657 113.184 132.490  0.00  0.00    -0.343 OA
ATOM     30  C   UNL     1     126.340 114.366 132.913  0.00  0.00    +0.282 C 
ATOM     31  C   UNL     1     126.055 114.720 134.392  0.00  0.00    +0.205 C 
ATOM     32  C   UNL     1     124.537 114.857 134.611  0.00  0.00    +0.183 C 
ATOM     33  C   UNL     1     123.728 113.655 134.070  0.00  0.00    +0.178 C 
ATOM     34  C   UNL     1     124.250 113.109 132.710  0.00  0.00    +0.150 C 
ATOM     35  C   UNL     1     123.846 111.648 132.527  0.00  0.00    +0.041 C 
BRANCH  31  36
ATOM     36  O   UNL     1     126.746 113.855 135.326  0.00  0.00    -0.372 OA
ATOM     37  C   UNL     1     128.151 113.963 135.481  0.00  0.00    +0.194 C 
ENDBRANCH  31  36
BRANCH  32  38
ATOM     38  O   UNL     1     124.150 115.328 135.914  0.00  0.00    -0.374 OA
ATOM     39  C   UNL     1     124.685 116.559 136.365  0.00  0.00    +0.194 C 
ENDBRANCH  32  38
BRANCH  33  40
ATOM     40  O   UNL     1     122.305 113.905 134.073  0.00  0.00    -0.375 OA
ATOM     41  C   UNL     1     121.794 114.815 133.110  0.00  0.00    +0.194 C 
ENDBRANCH  33  40
ENDBRANCH  28  30
ENDBRANCH  10  28
BRANCH  20  42
ATOM     42  O   UNL     1     133.165 116.365 125.442  0.00  0.00    -0.347 OA
BRANCH  42  44
ATOM     43  O   UNL     1     134.271 114.243 125.354  0.00  0.00    -0.347 OA
ATOM     44  C   UNL     1     134.024 115.420 126.111  0.00  0.00    +0.251 C 
ATOM     45  C   UNL     1     133.597 115.296 127.569  0.00  0.00    +0.063 C 
ATOM     46  C   UNL     1     132.881 114.005 127.885  0.00  0.00    +0.026 C 
ATOM     47  C   UNL     1     133.561 112.764 127.300  0.00  0.00    +0.085 C 
ATOM     48  C   UNL     1     133.882 112.942 125.797  0.00  0.00    +0.135 C 
ATOM     49  C   UNL     1     132.773 112.338 124.923  0.00  0.00    +0.039 C 
BRANCH  47  50
ATOM     50  N   UNL     1     134.691 112.271 128.134  0.00  0.00    -0.303 NA
ATOM     51  C   UNL     1     135.009 110.878 127.780  0.00  0.00    +0.105 C 
ATOM     52  C   UNL     1     135.918 113.068 128.070  0.00  0.00    +0.105 C 
ENDBRANCH  47  50
ENDBRANCH  42  44
ENDBRANCH  20  42
TORSDOF 9
ENDMDL
MODEL 19
REMARK VINA RESULT:      -7.6    105.055    111.736
REMARK  Name = 
REMARK  18 active torsions:
REMARK  status: ('A' for Active; 'I' for Inactive)
REMARK    1  A    between atoms: O_1  and  C_18
REMARK    2  A    between atoms: O_1  and  C_26
REMARK    3  A    between atoms: O_5  and  C_29
REMARK    4  A    between atoms: O_5  and  C_43
REMARK    5  A    between atoms: O_6  and  C_30
REMARK    6  A    between atoms: O_6  and  C_40
REMARK    7  A    between atoms: O_8  and  C_31
REMARK    8  A    between atoms: O_8  and  C_47
REMARK    9  A    between atoms: O_9  and  C_32
REMARK   10  A    between atoms: O_9  and  C_49
REMARK   11  A    between atoms: N_11  and  C_45
REMARK   12  A    between atoms: N_11  and  C_51
REMARK   13  A    between atoms: N_11  and  C_52
REMARK   14  A    between atoms: C_27  and  C_34
REMARK   15  A    between atoms: C_33  and  C_39
REMARK   16  A    between atoms: C_36  and  C_41
REMARK   17  A    between atoms: C_41  and  C_48
REMARK   18  A    between atoms: C_46  and  C_50
REMARK                            x       y       z     vdW  Elec       q    Type
REMARK                         _______ _______ _______ _____ _____    ______ ____
ROOT
ATOM      1  O   UNL     1     118.885 138.381  45.570  0.00  0.00    -0.292 OA
ATOM      2  O   UNL     1     113.305 135.713  43.559  0.00  0.00    -0.461 OA
ATOM      3  O   UNL     1     112.953 137.919  43.181  0.00  0.00    -0.251 OA
ATOM      4  C   UNL     1     115.985 141.778  43.619  0.00  0.00    +0.006 C 
ATOM      5  C   UNL     1     115.684 140.350  44.036  0.00  0.00    +0.023 C 
ATOM      6  C   UNL     1     117.409 142.115  43.994  0.00  0.00    +0.018 C 
ATOM      7  C   UNL     1     116.278 139.482  42.886  0.00  0.00    +0.027 C 
ATOM      8  C   UNL     1     115.059 142.878  44.078  0.00  0.00    +0.036 C 
ATOM      9  C   UNL     1     117.387 143.640  43.903  0.00  0.00    +0.039 C 
ATOM     10  C   UNL     1     116.001 143.996  44.500  0.00  0.00    +0.122 C 
ATOM     11  C   UNL     1     115.971 138.105  43.553  0.00  0.00    +0.040 C 
ATOM     12  C   UNL     1     116.388 139.580  45.221  0.00  0.00    -0.015 C 
ATOM     13  C   UNL     1     118.254 141.171  43.137  0.00  0.00    -0.027 C 
ATOM     14  C   UNL     1     117.754 139.997  42.646  0.00  0.00    -0.026 C 
ATOM     15  C   UNL     1     116.666 138.284  44.868  0.00  0.00    -0.004 C 
ATOM     16  C   UNL     1     115.215 137.020  42.748  0.00  0.00    +0.129 C 
ATOM     17  C   UNL     1     117.902 137.639  45.400  0.00  0.00    +0.164 C 
ATOM     18  C   UNL     1     118.083 136.136  45.706  0.00  0.00    +0.086 C 
ATOM     19  C   UNL     1     113.712 136.949  43.175  0.00  0.00    +0.308 C 
ATOM     20  C   UNL     1     117.169 135.439  46.740  0.00  0.00    +0.132 C 
ATOM     21  C   UNL     1     118.594 135.292  44.547  0.00  0.00    +0.018 C 
ATOM     22  C   UNL     1     116.461 134.111  46.393  0.00  0.00    +0.032 C 
ATOM     23  C   UNL     1     113.376 135.468  44.989  0.00  0.00    +0.176 C 
ATOM     24  C   UNL     1     114.936 134.090  46.478  0.00  0.00    +0.006 C 
ATOM     25  C   UNL     1     114.329 134.276  45.099  0.00  0.00    +0.045 C 
ENDROOT
BRANCH  23  26
ATOM     26  C   UNL     1     111.977 135.122  45.546  0.00  0.00    +0.041 C 
ATOM     27  C   UNL     1     111.326 133.929  44.851  0.00  0.00    +0.007 C 
ENDBRANCH  23  26
BRANCH  10  28
ATOM     28  O   UNL     1     115.568 145.271  44.077  0.00  0.00    -0.345 OA
BRANCH  28  30
ATOM     29  O   UNL     1     114.757 147.496  44.608  0.00  0.00    -0.343 OA
ATOM     30  C   UNL     1     114.791 146.109  44.948  0.00  0.00    +0.282 C 
ATOM     31  C   UNL     1     114.975 145.872  46.466  0.00  0.00    +0.205 C 
ATOM     32  C   UNL     1     116.251 146.586  46.951  0.00  0.00    +0.183 C 
ATOM     33  C   UNL     1     116.329 148.068  46.517  0.00  0.00    +0.178 C 
ATOM     34  C   UNL     1     115.824 148.323  45.068  0.00  0.00    +0.150 C 
ATOM     35  C   UNL     1     115.368 149.771  44.904  0.00  0.00    +0.041 C 
BRANCH  31  36
ATOM     36  O   UNL     1     113.778 146.143  47.232  0.00  0.00    -0.372 OA
ATOM     37  C   UNL     1     112.518 145.698  46.756  0.00  0.00    +0.194 C 
ENDBRANCH  31  36
BRANCH  32  38
ATOM     38  O   UNL     1     116.613 146.321  48.319  0.00  0.00    -0.374 OA
ATOM     39  C   UNL     1     117.715 145.467  48.564  0.00  0.00    +0.194 C 
ENDBRANCH  32  38
BRANCH  33  40
ATOM     40  O   UNL     1     117.625 148.650  46.778  0.00  0.00    -0.375 OA
ATOM     41  C   UNL     1     117.721 149.592  47.837  0.00  0.00    +0.194 C 
ENDBRANCH  33  40
ENDBRANCH  28  30
ENDBRANCH  10  28
BRANCH  20  42
ATOM     42  O   UNL     1     116.321 136.383  47.371  0.00  0.00    -0.347 OA
BRANCH  42  44
ATOM     43  O   UNL     1     115.927 135.876  49.679  0.00  0.00    -0.347 OA
ATOM     44  C   UNL     1     116.661 136.658  48.746  0.00  0.00    +0.251 C 
ATOM     45  C   UNL     1     116.759 138.166  48.948  0.00  0.00    +0.063 C 
ATOM     46  C   UNL     1     115.598 138.754  49.711  0.00  0.00    +0.026 C 
ATOM     47  C   UNL     1     115.213 137.957  50.959  0.00  0.00    +0.085 C 
ATOM     48  C   UNL     1     115.049 136.449  50.648  0.00  0.00    +0.135 C 
ATOM     49  C   UNL     1     113.577 136.101  50.377  0.00  0.00    +0.039 C 
BRANCH  47  50
ATOM     50  N   UNL     1     116.067 138.269  52.137  0.00  0.00    -0.303 NA
ATOM     51  C   UNL     1     115.549 139.456  52.836  0.00  0.00    +0.105 C 
ATOM     52  C   UNL     1     116.230 137.183  53.107  0.00  0.00    +0.105 C 
ENDBRANCH  47  50
ENDBRANCH  42  44
ENDBRANCH  20  42
TORSDOF 9
ENDMDL
MODEL 20
REMARK VINA RESULT:      -7.6    116.506    122.713
REMARK  Name = 
REMARK  18 active torsions:
REMARK  status: ('A' for Active; 'I' for Inactive)
REMARK    1  A    between atoms: O_1  and  C_18
REMARK    2  A    between atoms: O_1  and  C_26
REMARK    3  A    between atoms: O_5  and  C_29
REMARK    4  A    between atoms: O_5  and  C_43
REMARK    5  A    between atoms: O_6  and  C_30
REMARK    6  A    between atoms: O_6  and  C_40
REMARK    7  A    between atoms: O_8  and  C_31
REMARK    8  A    between atoms: O_8  and  C_47
REMARK    9  A    between atoms: O_9  and  C_32
REMARK   10  A    between atoms: O_9  and  C_49
REMARK   11  A    between atoms: N_11  and  C_45
REMARK   12  A    between atoms: N_11  and  C_51
REMARK   13  A    between atoms: N_11  and  C_52
REMARK   14  A    between atoms: C_27  and  C_34
REMARK   15  A    between atoms: C_33  and  C_39
REMARK   16  A    between atoms: C_36  and  C_41
REMARK   17  A    between atoms: C_41  and  C_48
REMARK   18  A    between atoms: C_46  and  C_50
REMARK                            x       y       z     vdW  Elec       q    Type
REMARK                         _______ _______ _______ _____ _____    ______ ____
ROOT
ATOM      1  O   UNL     1     134.933 120.291  31.170  0.00  0.00    -0.292 OA
ATOM      2  O   UNL     1     140.185 117.218  28.875  0.00  0.00    -0.461 OA
ATOM      3  O   UNL     1     139.380 115.739  30.390  0.00  0.00    -0.251 OA
ATOM      4  C   UNL     1     135.248 115.816  33.074  0.00  0.00    +0.006 C 
ATOM      5  C   UNL     1     136.267 116.626  32.294  0.00  0.00    +0.023 C 
ATOM      6  C   UNL     1     134.019 116.661  33.311  0.00  0.00    +0.018 C 
ATOM      7  C   UNL     1     135.799 116.505  30.813  0.00  0.00    +0.027 C 
ATOM      8  C   UNL     1     135.678 115.160  34.364  0.00  0.00    +0.036 C 
ATOM      9  C   UNL     1     133.330 115.874  34.426  0.00  0.00    +0.039 C 
ATOM     10  C   UNL     1     134.520 115.428  35.314  0.00  0.00    +0.122 C 
ATOM     11  C   UNL     1     136.878 117.470  30.227  0.00  0.00    +0.040 C 
ATOM     12  C   UNL     1     136.387 118.200  32.314  0.00  0.00    -0.015 C 
ATOM     13  C   UNL     1     133.465 116.915  31.909  0.00  0.00    -0.027 C 
ATOM     14  C   UNL     1     134.256 116.850  30.796  0.00  0.00    -0.026 C 
ATOM     15  C   UNL     1     136.622 118.691  31.055  0.00  0.00    -0.004 C 
ATOM     16  C   UNL     1     137.747 117.006  29.033  0.00  0.00    +0.129 C 
ATOM     17  C   UNL     1     136.036 120.010  30.672  0.00  0.00    +0.164 C 
ATOM     18  C   UNL     1     136.650 121.022  29.680  0.00  0.00    +0.086 C 
ATOM     19  C   UNL     1     139.173 116.575  29.510  0.00  0.00    +0.308 C 
ATOM     20  C   UNL     1     138.048 121.623  29.950  0.00  0.00    +0.132 C 
ATOM     21  C   UNL     1     136.237 120.841  28.226  0.00  0.00    +0.018 C 
ATOM     22  C   UNL     1     139.127 121.627  28.845  0.00  0.00    +0.032 C 
ATOM     23  C   UNL     1     140.678 118.400  29.560  0.00  0.00    +0.176 C 
ATOM     24  C   UNL     1     140.444 120.916  29.152  0.00  0.00    +0.006 C 
ATOM     25  C   UNL     1     140.443 119.523  28.548  0.00  0.00    +0.045 C 
ENDROOT
BRANCH  23  26
ATOM     26  C   UNL     1     142.180 118.246  29.889  0.00  0.00    +0.041 C 
ATOM     27  C   UNL     1     142.473 118.222  31.386  0.00  0.00    +0.007 C 
ENDBRANCH  23  26
BRANCH  10  28
ATOM     28  O   UNL     1     134.184 114.307  36.103  0.00  0.00    -0.345 OA
BRANCH  28  30
ATOM     29  O   UNL     1     134.509 115.674  38.082  0.00  0.00    -0.343 OA
ATOM     30  C   UNL     1     134.187 114.393  37.537  0.00  0.00    +0.282 C 
ATOM     31  C   UNL     1     134.884 113.234  38.289  0.00  0.00    +0.205 C 
ATOM     32  C   UNL     1     136.408 113.460  38.293  0.00  0.00    +0.183 C 
ATOM     33  C   UNL     1     136.818 114.873  38.767  0.00  0.00    +0.178 C 
ATOM     34  C   UNL     1     135.887 116.004  38.244  0.00  0.00    +0.150 C 
ATOM     35  C   UNL     1     135.950 117.221  39.165  0.00  0.00    +0.041 C 
BRANCH  31  36
ATOM     36  O   UNL     1     134.291 112.956  39.580  0.00  0.00    -0.372 OA
ATOM     37  C   UNL     1     133.526 111.777  39.766  0.00  0.00    +0.194 C 
ENDBRANCH  31  36
BRANCH  32  38
ATOM     38  O   UNL     1     137.182 112.375  38.835  0.00  0.00    -0.374 OA
ATOM     39  C   UNL     1     136.993 111.082  38.290  0.00  0.00    +0.194 C 
ENDBRANCH  32  38
BRANCH  33  40
ATOM     40  O   UNL     1     138.220 115.142  38.544  0.00  0.00    -0.375 OA
ATOM     41  C   UNL     1     138.633 115.422  37.213  0.00  0.00    +0.194 C 
ENDBRANCH  33  40
ENDBRANCH  28  30
ENDBRANCH  10  28
BRANCH  20  42
ATOM     42  O   UNL     1     138.535 121.204  31.213  0.00  0.00    -0.347 OA
BRANCH  42  44
ATOM     43  O   UNL     1     137.320 122.332  32.942  0.00  0.00    -0.347 OA
ATOM     44  C   UNL     1     138.540 122.238  32.218  0.00  0.00    +0.251 C 
ATOM     45  C   UNL     1     139.164 123.502  31.639  0.00  0.00    +0.063 C 
ATOM     46  C   UNL     1     138.164 124.591  31.337  0.00  0.00    +0.026 C 
ATOM     47  C   UNL     1     137.150 124.825  32.459  0.00  0.00    +0.085 C 
ATOM     48  C   UNL     1     136.500 123.501  32.929  0.00  0.00    +0.135 C 
ATOM     49  C   UNL     1     135.160 123.264  32.218  0.00  0.00    +0.039 C 
BRANCH  47  50
ATOM     50  N   UNL     1     137.675 125.693  33.548  0.00  0.00    -0.303 NA
ATOM     51  C   UNL     1     137.649 127.103  33.127  0.00  0.00    +0.105 C 
ATOM     52  C   UNL     1     136.992 125.572  34.838  0.00  0.00    +0.105 C 
ENDBRANCH  47  50
ENDBRANCH  42  44
ENDBRANCH  20  42
TORSDOF 9
ENDMDL
