MODEL 1
REMARK VINA RESULT:      -8.6      0.000      0.000
REMARK  Name = 
REMARK  18 active torsions:
REMARK  status: ('A' for Active; 'I' for Inactive)
REMARK    1  A    between atoms: O_1  and  C_18
REMARK    2  A    between atoms: O_1  and  C_27
REMARK    3  A    between atoms: O_5  and  C_30
REMARK    4  A    between atoms: O_5  and  C_44
REMARK    5  A    between atoms: O_6  and  C_31
REMARK    6  A    between atoms: O_6  and  C_41
REMARK    7  A    between atoms: O_8  and  C_32
REMARK    8  A    between atoms: O_9  and  C_35
REMARK    9  A    between atoms: O_9  and  C_49
REMARK   10  A    between atoms: N_11  and  C_46
REMARK   11  A    between atoms: N_11  and  C_51
REMARK   12  A    between atoms: N_11  and  C_52
REMARK   13  A    between atoms: C_20  and  C_25
REMARK   14  A    between atoms: C_28  and  C_33
REMARK   15  A    between atoms: C_34  and  C_40
REMARK   16  A    between atoms: C_37  and  C_42
REMARK   17  A    between atoms: C_42  and  C_48
REMARK   18  A    between atoms: C_47  and  C_50
REMARK                            x       y       z     vdW  Elec       q    Type
REMARK                         _______ _______ _______ _____ _____    ______ ____
ROOT
ATOM      1  O   UNL     1     120.337 124.509 108.150  0.00  0.00    -0.292 OA
ATOM      2  O   UNL     1     119.664 125.712 112.747  0.00  0.00    -0.461 OA
ATOM      3  O   UNL     1     117.869 124.467 113.096  0.00  0.00    -0.251 OA
ATOM      4  C   UNL     1     117.961 119.900 110.383  0.00  0.00    +0.006 C 
ATOM      5  C   UNL     1     117.667 121.076 109.458  0.00  0.00    +0.023 C 
ATOM      6  C   UNL     1     116.903 119.682 111.499  0.00  0.00    +0.021 C 
ATOM      7  C   UNL     1     117.224 122.360 110.229  0.00  0.00    +0.027 C 
ATOM      8  C   UNL     1     118.053 118.521 109.677  0.00  0.00    +0.036 C 
ATOM      9  C   UNL     1     116.270 118.333 111.173  0.00  0.00    +0.039 C 
ATOM     10  C   UNL     1     117.538 117.573 110.767  0.00  0.00    +0.122 C 
ATOM     11  C   UNL     1     118.569 123.098 110.508  0.00  0.00    +0.040 C 
ATOM     12  C   UNL     1     116.044 120.834 111.889  0.00  0.00    -0.073 C 
ATOM     13  C   UNL     1     118.909 121.543 108.741  0.00  0.00    -0.015 C 
ATOM     14  C   UNL     1     116.307 122.071 111.396  0.00  0.00    -0.023 C 
ATOM     15  C   UNL     1     119.379 122.682 109.272  0.00  0.00    -0.004 C 
ATOM     16  C   UNL     1     118.512 124.621 110.822  0.00  0.00    +0.129 C 
ATOM     17  C   UNL     1     115.085 120.539 113.005  0.00  0.00    +0.039 C 
ATOM     18  C   UNL     1     120.548 123.426 108.691  0.00  0.00    +0.164 C 
ATOM     19  C   UNL     1     121.971 122.847 108.845  0.00  0.00    +0.086 C 
ATOM     20  C   UNL     1     118.699 124.889 112.303  0.00  0.00    +0.308 C 
ATOM     21  C   UNL     1     122.599 122.977 110.278  0.00  0.00    +0.132 C 
ATOM     22  C   UNL     1     122.947 123.445 107.813  0.00  0.00    +0.018 C 
ATOM     23  C   UNL     1     121.509 123.073 111.345  0.00  0.00    +0.032 C 
ATOM     24  C   UNL     1     121.116 125.908 112.529  0.00  0.00    +0.176 C 
ATOM     25  C   UNL     1     121.676 123.362 112.818  0.00  0.00    +0.006 C 
ATOM     26  C   UNL     1     122.019 124.803 113.130  0.00  0.00    +0.045 C 
ENDROOT
BRANCH  24  27
ATOM     27  C   UNL     1     121.545 126.399 111.142  0.00  0.00    +0.041 C 
ATOM     28  C   UNL     1     123.054 126.547 111.040  0.00  0.00    +0.007 C 
ENDBRANCH  24  27
BRANCH  10  29
ATOM     29  O   UNL     1     118.520 117.688 111.788  0.00  0.00    -0.345 OA
BRANCH  29  31
ATOM     30  O   UNL     1     118.540 118.017 114.046  0.00  0.00    -0.343 OA
ATOM     31  C   UNL     1     118.532 117.028 113.030  0.00  0.00    +0.282 C 
ATOM     32  C   UNL     1     119.488 115.825 113.162  0.00  0.00    +0.205 C 
ATOM     33  C   UNL     1     120.809 116.238 113.819  0.00  0.00    +0.179 C 
ATOM     34  C   UNL     1     119.784 118.490 114.537  0.00  0.00    +0.150 C 
ATOM     35  C   UNL     1     120.692 117.313 114.935  0.00  0.00    +0.177 C 
ATOM     36  C   UNL     1     120.397 119.618 113.714  0.00  0.00    +0.041 C 
BRANCH  32  37
ATOM     37  O   UNL     1     118.926 114.565 113.588  0.00  0.00    -0.372 OA
ATOM     38  C   UNL     1     118.261 114.437 114.830  0.00  0.00    +0.194 C 
ENDBRANCH  32  37
BRANCH  33  39
ATOM     39  O   UNL     1     121.588 115.099 114.201  0.00  0.00    -0.386 OA
ATOM     40  H   UNL     1     121.819 114.617 113.382  0.00  0.00    +0.210 HD
ENDBRANCH  33  39
BRANCH  35  41
ATOM     41  O   UNL     1     120.316 116.702 116.190  0.00  0.00    -0.375 OA
ATOM     42  C   UNL     1     120.734 117.319 117.402  0.00  0.00    +0.194 C 
ENDBRANCH  35  41
ENDBRANCH  29  31
ENDBRANCH  10  29
BRANCH  21  43
ATOM     43  O   UNL     1     123.537 121.903 110.337  0.00  0.00    -0.347 OA
BRANCH  43  45
ATOM     44  O   UNL     1     123.927 120.364 111.995  0.00  0.00    -0.347 OA
ATOM     45  C   UNL     1     123.143 120.644 110.843  0.00  0.00    +0.251 C 
ATOM     46  C   UNL     1     123.111 119.544 109.758  0.00  0.00    +0.063 C 
ATOM     47  C   UNL     1     124.170 118.464 109.783  0.00  0.00    +0.026 C 
ATOM     48  C   UNL     1     124.785 118.248 111.156  0.00  0.00    +0.085 C 
ATOM     49  C   UNL     1     125.125 119.637 111.763  0.00  0.00    +0.135 C 
ATOM     50  C   UNL     1     126.116 120.472 110.939  0.00  0.00    +0.039 C 
BRANCH  48  51
ATOM     51  N   UNL     1     123.966 117.314 111.981  0.00  0.00    -0.303 NA
ATOM     52  C   UNL     1     123.497 116.181 111.189  0.00  0.00    +0.105 C 
ATOM     53  C   UNL     1     124.542 116.827 113.233  0.00  0.00    +0.105 C 
ENDBRANCH  48  51
ENDBRANCH  43  45
ENDBRANCH  21  43
TORSDOF 9
ENDMDL
MODEL 2
REMARK VINA RESULT:      -8.5      2.471      5.113
REMARK  Name = 
REMARK  18 active torsions:
REMARK  status: ('A' for Active; 'I' for Inactive)
REMARK    1  A    between atoms: O_1  and  C_18
REMARK    2  A    between atoms: O_1  and  C_27
REMARK    3  A    between atoms: O_5  and  C_30
REMARK    4  A    between atoms: O_5  and  C_44
REMARK    5  A    between atoms: O_6  and  C_31
REMARK    6  A    between atoms: O_6  and  C_41
REMARK    7  A    between atoms: O_8  and  C_32
REMARK    8  A    between atoms: O_9  and  C_35
REMARK    9  A    between atoms: O_9  and  C_49
REMARK   10  A    between atoms: N_11  and  C_46
REMARK   11  A    between atoms: N_11  and  C_51
REMARK   12  A    between atoms: N_11  and  C_52
REMARK   13  A    between atoms: C_20  and  C_25
REMARK   14  A    between atoms: C_28  and  C_33
REMARK   15  A    between atoms: C_34  and  C_40
REMARK   16  A    between atoms: C_37  and  C_42
REMARK   17  A    between atoms: C_42  and  C_48
REMARK   18  A    between atoms: C_47  and  C_50
REMARK                            x       y       z     vdW  Elec       q    Type
REMARK                         _______ _______ _______ _____ _____    ______ ____
ROOT
ATOM      1  O   UNL     1     124.110 123.062 108.116  0.00  0.00    -0.292 OA
ATOM      2  O   UNL     1     125.061 124.014 112.723  0.00  0.00    -0.461 OA
ATOM      3  O   UNL     1     123.329 125.339 113.093  0.00  0.00    -0.251 OA
ATOM      4  C   UNL     1     119.001 123.894 110.371  0.00  0.00    +0.006 C 
ATOM      5  C   UNL     1     120.030 124.544 109.452  0.00  0.00    +0.023 C 
ATOM      6  C   UNL     1     118.474 124.822 111.500  0.00  0.00    +0.021 C 
ATOM      7  C   UNL     1     121.119 125.347 110.230  0.00  0.00    +0.027 C 
ATOM      8  C   UNL     1     117.714 123.396 109.662  0.00  0.00    +0.036 C 
ATOM      9  C   UNL     1     116.995 125.018 111.180  0.00  0.00    +0.039 C 
ATOM     10  C   UNL     1     116.657 123.584 110.757  0.00  0.00    +0.122 C 
ATOM     11  C   UNL     1     122.233 124.287 110.494  0.00  0.00    +0.040 C 
ATOM     12  C   UNL     1     119.310 125.986 111.903  0.00  0.00    -0.073 C 
ATOM     13  C   UNL     1     120.851 123.512 108.721  0.00  0.00    -0.015 C 
ATOM     14  C   UNL     1     120.568 126.119 111.409  0.00  0.00    -0.023 C 
ATOM     15  C   UNL     1     122.080 123.405 109.247  0.00  0.00    -0.004 C 
ATOM     16  C   UNL     1     123.666 124.802 110.811  0.00  0.00    +0.129 C 
ATOM     17  C   UNL     1     118.740 126.796 113.030  0.00  0.00    +0.039 C 
ATOM     18  C   UNL     1     123.143 122.525 108.653  0.00  0.00    +0.164 C 
ATOM     19  C   UNL     1     123.026 120.992 108.789  0.00  0.00    +0.086 C 
ATOM     20  C   UNL     1     123.983 124.687 112.290  0.00  0.00    +0.308 C 
ATOM     21  C   UNL     1     123.344 120.415 110.213  0.00  0.00    +0.132 C 
ATOM     22  C   UNL     1     123.890 120.257 107.745  0.00  0.00    +0.018 C 
ATOM     23  C   UNL     1     123.106 121.470 111.295  0.00  0.00    +0.032 C 
ATOM     24  C   UNL     1     125.689 122.692 112.487  0.00  0.00    +0.176 C 
ATOM     25  C   UNL     1     123.436 121.380 112.765  0.00  0.00    +0.006 C 
ATOM     26  C   UNL     1     124.913 121.488 113.076  0.00  0.00    +0.045 C 
ENDROOT
BRANCH  24  27
ATOM     27  C   UNL     1     126.285 122.451 111.096  0.00  0.00    +0.041 C 
ATOM     28  C   UNL     1     126.875 121.056 110.972  0.00  0.00    +0.007 C 
ENDBRANCH  24  27
BRANCH  10  29
ATOM     29  O   UNL     1     117.067 122.671 111.766  0.00  0.00    -0.345 OA
BRANCH  29  31
ATOM     30  O   UNL     1     117.358 122.735 114.028  0.00  0.00    -0.343 OA
ATOM     31  C   UNL     1     116.434 122.429 112.998  0.00  0.00    +0.282 C 
ATOM     32  C   UNL     1     115.611 121.129 113.106  0.00  0.00    +0.205 C 
ATOM     33  C   UNL     1     116.428 120.010 113.760  0.00  0.00    +0.179 C 
ATOM     34  C   UNL     1     118.209 121.711 114.518  0.00  0.00    +0.150 C 
ATOM     35  C   UNL     1     117.392 120.461 114.892  0.00  0.00    +0.177 C 
ATOM     36  C   UNL     1     119.485 121.512 113.707  0.00  0.00    +0.041 C 
BRANCH  32  37
ATOM     37  O   UNL     1     114.232 121.241 113.517  0.00  0.00    -0.372 OA
ATOM     38  C   UNL     1     113.873 121.865 114.735  0.00  0.00    +0.194 C 
ENDBRANCH  32  37
BRANCH  33  39
ATOM     39  O   UNL     1     115.605 118.895 114.119  0.00  0.00    -0.386 OA
ATOM     40  H   UNL     1     115.969 118.108 113.669  0.00  0.00    +0.210 HD
ENDBRANCH  33  39
BRANCH  35  41
ATOM     41  O   UNL     1     116.676 120.602 116.140  0.00  0.00    -0.375 OA
ATOM     42  C   UNL     1     117.404 120.971 117.306  0.00  0.00    +0.194 C 
ENDBRANCH  35  41
ENDBRANCH  29  31
ENDBRANCH  10  29
BRANCH  21  43
ATOM     43  O   UNL     1     122.607 119.194 110.260  0.00  0.00    -0.347 OA
BRANCH  43  45
ATOM     44  O   UNL     1     121.242 118.392 111.923  0.00  0.00    -0.347 OA
ATOM     45  C   UNL     1     121.279 119.184 110.743  0.00  0.00    +0.251 C 
ATOM     46  C   UNL     1     120.245 118.829 109.651  0.00  0.00    +0.063 C 
ATOM     47  C   UNL     1     119.556 117.483 109.711  0.00  0.00    +0.026 C 
ATOM     48  C   UNL     1     119.524 116.878 111.104  0.00  0.00    +0.085 C 
ATOM     49  C   UNL     1     120.938 117.018 111.732  0.00  0.00    +0.135 C 
ATOM     50  C   UNL     1     122.058 116.316 110.950  0.00  0.00    +0.039 C 
BRANCH  48  51
ATOM     51  N   UNL     1     118.364 117.385 111.893  0.00  0.00    -0.303 NA
ATOM     52  C   UNL     1     117.159 117.465 111.072  0.00  0.00    +0.105 C 
ATOM     53  C   UNL     1     118.049 116.713 113.152  0.00  0.00    +0.105 C 
ENDBRANCH  48  51
ENDBRANCH  43  45
ENDBRANCH  21  43
TORSDOF 9
ENDMDL
MODEL 3
REMARK VINA RESULT:      -8.5      2.779      8.232
REMARK  Name = 
REMARK  18 active torsions:
REMARK  status: ('A' for Active; 'I' for Inactive)
REMARK    1  A    between atoms: O_1  and  C_18
REMARK    2  A    between atoms: O_1  and  C_27
REMARK    3  A    between atoms: O_5  and  C_30
REMARK    4  A    between atoms: O_5  and  C_44
REMARK    5  A    between atoms: O_6  and  C_31
REMARK    6  A    between atoms: O_6  and  C_41
REMARK    7  A    between atoms: O_8  and  C_32
REMARK    8  A    between atoms: O_9  and  C_35
REMARK    9  A    between atoms: O_9  and  C_49
REMARK   10  A    between atoms: N_11  and  C_46
REMARK   11  A    between atoms: N_11  and  C_51
REMARK   12  A    between atoms: N_11  and  C_52
REMARK   13  A    between atoms: C_20  and  C_25
REMARK   14  A    between atoms: C_28  and  C_33
REMARK   15  A    between atoms: C_34  and  C_40
REMARK   16  A    between atoms: C_37  and  C_42
REMARK   17  A    between atoms: C_42  and  C_48
REMARK   18  A    between atoms: C_47  and  C_50
REMARK                            x       y       z     vdW  Elec       q    Type
REMARK                         _______ _______ _______ _____ _____    ______ ____
ROOT
ATOM      1  O   UNL     1     119.938 118.011 107.977  0.00  0.00    -0.292 OA
ATOM      2  O   UNL     1     119.753 116.611 112.563  0.00  0.00    -0.461 OA
ATOM      3  O   UNL     1     121.934 116.566 112.925  0.00  0.00    -0.251 OA
ATOM      4  C   UNL     1     124.551 120.338 110.251  0.00  0.00    +0.006 C 
ATOM      5  C   UNL     1     124.105 119.219 109.317  0.00  0.00    +0.023 C 
ATOM      6  C   UNL     1     125.530 119.887 111.370  0.00  0.00    +0.021 C 
ATOM      7  C   UNL     1     123.708 117.915 110.076  0.00  0.00    +0.027 C 
ATOM      8  C   UNL     1     125.289 121.514 109.557  0.00  0.00    +0.036 C 
ATOM      9  C   UNL     1     126.836 120.612 111.056  0.00  0.00    +0.039 C 
ATOM     10  C   UNL     1     126.255 121.974 110.656  0.00  0.00    +0.122 C 
ATOM     11  C   UNL     1     122.184 118.103 110.348  0.00  0.00    +0.040 C 
ATOM     12  C   UNL     1     125.549 118.449 111.751  0.00  0.00    -0.073 C 
ATOM     13  C   UNL     1     122.830 119.574 108.595  0.00  0.00    -0.015 C 
ATOM     14  C   UNL     1     124.614 117.603 111.247  0.00  0.00    -0.023 C 
ATOM     15  C   UNL     1     121.779 118.923 109.115  0.00  0.00    -0.004 C 
ATOM     16  C   UNL     1     121.337 116.833 110.649  0.00  0.00    +0.129 C 
ATOM     17  C   UNL     1     126.493 118.118 112.870  0.00  0.00    +0.039 C 
ATOM     18  C   UNL     1     120.399 119.009 108.527  0.00  0.00    +0.164 C 
ATOM     19  C   UNL     1     119.584 120.310 108.686  0.00  0.00    +0.086 C 
ATOM     20  C   UNL     1     121.019 116.715 112.127  0.00  0.00    +0.308 C 
ATOM     21  C   UNL     1     118.990 120.564 110.116  0.00  0.00    +0.132 C 
ATOM     22  C   UNL     1     118.448 120.405 107.647  0.00  0.00    +0.018 C 
ATOM     23  C   UNL     1     119.812 119.840 111.184  0.00  0.00    +0.032 C 
ATOM     24  C   UNL     1     118.462 117.305 112.342  0.00  0.00    +0.176 C 
ATOM     25  C   UNL     1     119.498 119.694 112.653  0.00  0.00    +0.006 C 
ATOM     26  C   UNL     1     118.375 118.726 112.953  0.00  0.00    +0.045 C 
ENDROOT
BRANCH  24  27
ATOM     27  C   UNL     1     117.835 117.167 110.951  0.00  0.00    +0.041 C 
ATOM     28  C   UNL     1     116.556 117.979 110.829  0.00  0.00    +0.007 C 
ENDBRANCH  24  27
BRANCH  10  29
ATOM     29  O   UNL     1     125.387 122.449 111.675  0.00  0.00    -0.345 OA
BRANCH  29  31
ATOM     30  O   UNL     1     125.159 122.142 113.925  0.00  0.00    -0.343 OA
ATOM     31  C   UNL     1     125.756 122.960 112.933  0.00  0.00    +0.282 C 
ATOM     32  C   UNL     1     125.690 124.492 113.100  0.00  0.00    +0.205 C 
ATOM     33  C   UNL     1     124.374 124.920 113.757  0.00  0.00    +0.179 C 
ATOM     34  C   UNL     1     123.871 122.480 114.414  0.00  0.00    +0.150 C 
ATOM     35  C   UNL     1     123.827 123.956 114.847  0.00  0.00    +0.177 C 
ATOM     36  C   UNL     1     122.718 121.949 113.569  0.00  0.00    +0.041 C 
BRANCH  32  37
ATOM     37  O   UNL     1     126.882 125.169 113.551  0.00  0.00    -0.372 OA
ATOM     38  C   UNL     1     127.465 124.877 114.807  0.00  0.00    +0.194 C 
ENDBRANCH  32  37
BRANCH  33  39
ATOM     39  O   UNL     1     124.411 126.290 114.172  0.00  0.00    -0.386 OA
ATOM     40  H   UNL     1     124.183 126.312 115.122  0.00  0.00    +0.210 HD
ENDBRANCH  33  39
BRANCH  35  41
ATOM     41  O   UNL     1     124.481 124.199 116.113  0.00  0.00    -0.375 OA
ATOM     42  C   UNL     1     124.383 123.211 117.132  0.00  0.00    +0.194 C 
ENDBRANCH  35  41
ENDBRANCH  29  31
ENDBRANCH  10  29
BRANCH  21  43
ATOM     43  O   UNL     1     118.859 121.983 110.185  0.00  0.00    -0.347 OA
BRANCH  43  45
ATOM     44  O   UNL     1     119.482 123.381 111.896  0.00  0.00    -0.347 OA
ATOM     45  C   UNL     1     119.919 122.771 110.689  0.00  0.00    +0.251 C 
ATOM     46  C   UNL     1     120.523 123.717 109.627  0.00  0.00    +0.063 C 
ATOM     47  C   UNL     1     120.265 125.203 109.744  0.00  0.00    +0.026 C 
ATOM     48  C   UNL     1     119.940 125.653 111.158  0.00  0.00    +0.085 C 
ATOM     49  C   UNL     1     118.898 124.669 111.758  0.00  0.00    +0.135 C 
ATOM     50  C   UNL     1     117.575 124.586 110.983  0.00  0.00    +0.039 C 
BRANCH  48  51
ATOM     51  N   UNL     1     121.178 125.916 111.946  0.00  0.00    -0.303 NA
ATOM     52  C   UNL     1     122.180 126.609 111.144  0.00  0.00    +0.105 C 
ATOM     53  C   UNL     1     121.036 126.592 113.235  0.00  0.00    +0.105 C 
ENDBRANCH  48  51
ENDBRANCH  43  45
ENDBRANCH  21  43
TORSDOF 9
ENDMDL
MODEL 4
REMARK VINA RESULT:      -8.4      2.180      4.162
REMARK  Name = 
REMARK  18 active torsions:
REMARK  status: ('A' for Active; 'I' for Inactive)
REMARK    1  A    between atoms: O_1  and  C_18
REMARK    2  A    between atoms: O_1  and  C_27
REMARK    3  A    between atoms: O_5  and  C_30
REMARK    4  A    between atoms: O_5  and  C_44
REMARK    5  A    between atoms: O_6  and  C_31
REMARK    6  A    between atoms: O_6  and  C_41
REMARK    7  A    between atoms: O_8  and  C_32
REMARK    8  A    between atoms: O_9  and  C_35
REMARK    9  A    between atoms: O_9  and  C_49
REMARK   10  A    between atoms: N_11  and  C_46
REMARK   11  A    between atoms: N_11  and  C_51
REMARK   12  A    between atoms: N_11  and  C_52
REMARK   13  A    between atoms: C_20  and  C_25
REMARK   14  A    between atoms: C_28  and  C_33
REMARK   15  A    between atoms: C_34  and  C_40
REMARK   16  A    between atoms: C_37  and  C_42
REMARK   17  A    between atoms: C_42  and  C_48
REMARK   18  A    between atoms: C_47  and  C_50
REMARK                            x       y       z     vdW  Elec       q    Type
REMARK                         _______ _______ _______ _____ _____    ______ ____
ROOT
ATOM      1  O   UNL     1     125.251 124.376 109.606  0.00  0.00    -0.292 OA
ATOM      2  O   UNL     1     123.714 126.559 113.594  0.00  0.00    -0.461 OA
ATOM      3  O   UNL     1     121.633 126.908 112.930  0.00  0.00    -0.251 OA
ATOM      4  C   UNL     1     119.775 123.023 109.819  0.00  0.00    +0.006 C 
ATOM      5  C   UNL     1     120.768 123.897 109.063  0.00  0.00    +0.023 C 
ATOM      6  C   UNL     1     118.511 123.774 110.320  0.00  0.00    +0.021 C 
ATOM      7  C   UNL     1     121.031 125.266 109.764  0.00  0.00    +0.027 C 
ATOM      8  C   UNL     1     119.205 121.828 109.008  0.00  0.00    +0.036 C 
ATOM      9  C   UNL     1     117.357 123.152 109.539  0.00  0.00    +0.039 C 
ATOM     10  C   UNL     1     117.798 121.686 109.602  0.00  0.00    +0.122 C 
ATOM     11  C   UNL     1     122.233 124.965 110.711  0.00  0.00    +0.040 C 
ATOM     12  C   UNL     1     118.589 125.252 110.484  0.00  0.00    -0.073 C 
ATOM     13  C   UNL     1     122.143 123.279 109.036  0.00  0.00    -0.015 C 
ATOM     14  C   UNL     1     119.784 125.884 110.360  0.00  0.00    -0.023 C 
ATOM     15  C   UNL     1     122.971 123.895 109.894  0.00  0.00    -0.004 C 
ATOM     16  C   UNL     1     123.084 126.167 111.212  0.00  0.00    +0.129 C 
ATOM     17  C   UNL     1     117.335 125.882 111.015  0.00  0.00    +0.039 C 
ATOM     18  C   UNL     1     124.430 123.552 110.002  0.00  0.00    +0.164 C 
ATOM     19  C   UNL     1     124.852 122.220 110.656  0.00  0.00    +0.086 C 
ATOM     20  C   UNL     1     122.757 126.517 112.651  0.00  0.00    +0.308 C 
ATOM     21  C   UNL     1     124.724 122.167 112.220  0.00  0.00    +0.132 C 
ATOM     22  C   UNL     1     126.285 121.814 110.256  0.00  0.00    +0.018 C 
ATOM     23  C   UNL     1     123.670 123.159 112.714  0.00  0.00    +0.032 C 
ATOM     24  C   UNL     1     124.828 125.699 114.056  0.00  0.00    +0.176 C 
ATOM     25  C   UNL     1     123.349 123.535 114.141  0.00  0.00    +0.006 C 
ATOM     26  C   UNL     1     124.392 124.412 114.800  0.00  0.00    +0.045 C 
ENDROOT
BRANCH  24  27
ATOM     27  C   UNL     1     126.002 125.511 113.089  0.00  0.00    +0.041 C 
ATOM     28  C   UNL     1     127.062 124.587 113.664  0.00  0.00    +0.007 C 
ENDBRANCH  24  27
BRANCH  10  29
ATOM     29  O   UNL     1     118.050 121.311 110.949  0.00  0.00    -0.345 OA
BRANCH  29  31
ATOM     30  O   UNL     1     116.551 121.775 112.606  0.00  0.00    -0.343 OA
ATOM     31  C   UNL     1     117.140 120.730 111.850  0.00  0.00    +0.282 C 
ATOM     32  C   UNL     1     117.616 119.463 112.589  0.00  0.00    +0.205 C 
ATOM     33  C   UNL     1     118.161 119.805 113.979  0.00  0.00    +0.179 C 
ATOM     34  C   UNL     1     117.160 122.173 113.824  0.00  0.00    +0.150 C 
ATOM     35  C   UNL     1     117.422 120.952 114.723  0.00  0.00    +0.177 C 
ATOM     36  C   UNL     1     118.281 123.194 113.661  0.00  0.00    +0.041 C 
BRANCH  32  37
ATOM     37  O   UNL     1     116.790 118.282 112.496  0.00  0.00    -0.372 OA
ATOM     38  C   UNL     1     116.562 117.638 111.258  0.00  0.00    +0.194 C 
ENDBRANCH  32  37
BRANCH  33  39
ATOM     39  O   UNL     1     118.345 118.631 114.779  0.00  0.00    -0.386 OA
ATOM     40  H   UNL     1     117.603 118.593 115.414  0.00  0.00    +0.210 HD
ENDBRANCH  33  39
BRANCH  35  41
ATOM     41  O   UNL     1     116.229 120.453 115.367  0.00  0.00    -0.375 OA
ATOM     42  C   UNL     1     115.272 121.388 115.851  0.00  0.00    +0.194 C 
ENDBRANCH  35  41
ENDBRANCH  29  31
ENDBRANCH  10  29
BRANCH  21  43
ATOM     43  O   UNL     1     124.557 120.778 112.502  0.00  0.00    -0.347 OA
BRANCH  43  45
ATOM     44  O   UNL     1     123.278 119.151 113.496  0.00  0.00    -0.347 OA
ATOM     45  C   UNL     1     123.262 120.215 112.553  0.00  0.00    +0.251 C 
ATOM     46  C   UNL     1     122.699 119.876 111.154  0.00  0.00    +0.063 C 
ATOM     47  C   UNL     1     122.577 118.424 110.750  0.00  0.00    +0.026 C 
ATOM     48  C   UNL     1     122.480 117.471 111.929  0.00  0.00    +0.085 C 
ATOM     49  C   UNL     1     123.566 117.865 112.968  0.00  0.00    +0.135 C 
ATOM     50  C   UNL     1     125.007 117.803 112.442  0.00  0.00    +0.039 C 
BRANCH  48  51
ATOM     51  N   UNL     1     121.075 117.342 112.413  0.00  0.00    -0.303 NA
ATOM     52  C   UNL     1     120.173 116.970 111.328  0.00  0.00    +0.105 C 
ATOM     53  C   UNL     1     120.827 116.479 113.567  0.00  0.00    +0.105 C 
ENDBRANCH  48  51
ENDBRANCH  43  45
ENDBRANCH  21  43
TORSDOF 9
ENDMDL
MODEL 5
REMARK VINA RESULT:      -8.3      2.249      7.698
REMARK  Name = 
REMARK  18 active torsions:
REMARK  status: ('A' for Active; 'I' for Inactive)
REMARK    1  A    between atoms: O_1  and  C_18
REMARK    2  A    between atoms: O_1  and  C_27
REMARK    3  A    between atoms: O_5  and  C_30
REMARK    4  A    between atoms: O_5  and  C_44
REMARK    5  A    between atoms: O_6  and  C_31
REMARK    6  A    between atoms: O_6  and  C_41
REMARK    7  A    between atoms: O_8  and  C_32
REMARK    8  A    between atoms: O_9  and  C_35
REMARK    9  A    between atoms: O_9  and  C_49
REMARK   10  A    between atoms: N_11  and  C_46
REMARK   11  A    between atoms: N_11  and  C_51
REMARK   12  A    between atoms: N_11  and  C_52
REMARK   13  A    between atoms: C_20  and  C_25
REMARK   14  A    between atoms: C_28  and  C_33
REMARK   15  A    between atoms: C_34  and  C_40
REMARK   16  A    between atoms: C_37  and  C_42
REMARK   17  A    between atoms: C_42  and  C_48
REMARK   18  A    between atoms: C_47  and  C_50
REMARK                            x       y       z     vdW  Elec       q    Type
REMARK                         _______ _______ _______ _____ _____    ______ ____
ROOT
ATOM      1  O   UNL     1     125.401 118.252 109.706  0.00  0.00    -0.292 OA
ATOM      2  O   UNL     1     127.033 120.375 113.688  0.00  0.00    -0.461 OA
ATOM      3  O   UNL     1     126.787 122.465 113.005  0.00  0.00    -0.251 OA
ATOM      4  C   UNL     1     122.558 123.126 109.857  0.00  0.00    +0.006 C 
ATOM      5  C   UNL     1     123.683 122.413 109.115  0.00  0.00    +0.023 C 
ATOM      6  C   UNL     1     122.920 124.555 110.349  0.00  0.00    +0.021 C 
ATOM      7  C   UNL     1     125.065 122.553 109.825  0.00  0.00    +0.027 C 
ATOM      8  C   UNL     1     121.258 123.330 109.035  0.00  0.00    +0.036 C 
ATOM      9  C   UNL     1     122.004 125.481 109.553  0.00  0.00    +0.039 C 
ATOM     10  C   UNL     1     120.720 124.645 109.613  0.00  0.00    +0.122 C 
ATOM     11  C   UNL     1     125.108 121.322 110.783  0.00  0.00    +0.040 C 
ATOM     12  C   UNL     1     124.358 124.897 110.521  0.00  0.00    -0.073 C 
ATOM     13  C   UNL     1     123.477 120.919 109.099  0.00  0.00    -0.015 C 
ATOM     14  C   UNL     1     125.302 123.928 110.411  0.00  0.00    -0.023 C 
ATOM     15  C   UNL     1     124.295 120.306 109.968  0.00  0.00    -0.004 C 
ATOM     16  C   UNL     1     126.497 120.849 111.298  0.00  0.00    +0.129 C 
ATOM     17  C   UNL     1     124.606 126.283 111.041  0.00  0.00    +0.039 C 
ATOM     18  C   UNL     1     124.376 118.811 110.089  0.00  0.00    +0.164 C 
ATOM     19  C   UNL     1     123.212 118.036 110.742  0.00  0.00    +0.086 C 
ATOM     20  C   UNL     1     126.730 121.273 112.735  0.00  0.00    +0.308 C 
ATOM     21  C   UNL     1     123.114 118.157 112.304  0.00  0.00    +0.132 C 
ATOM     22  C   UNL     1     123.229 116.543 110.355  0.00  0.00    +0.018 C 
ATOM     23  C   UNL     1     123.766 119.452 112.792  0.00  0.00    +0.032 C 
ATOM     24  C   UNL     1     126.519 119.068 114.158  0.00  0.00    +0.176 C 
ATOM     25  C   UNL     1     124.025 119.878 114.217  0.00  0.00    +0.006 C 
ATOM     26  C   UNL     1     125.155 119.130 114.891  0.00  0.00    +0.045 C 
ENDROOT
BRANCH  24  27
ATOM     27  C   UNL     1     126.676 117.881 113.201  0.00  0.00    +0.041 C 
ATOM     28  C   UNL     1     126.053 116.616 113.768  0.00  0.00    +0.007 C 
ENDBRANCH  24  27
BRANCH  10  29
ATOM     29  O   UNL     1     120.422 124.309 110.961  0.00  0.00    -0.345 OA
BRANCH  29  31
ATOM     30  O   UNL     1     120.329 125.941 112.553  0.00  0.00    -0.343 OA
ATOM     31  C   UNL     1     119.557 124.995 111.833  0.00  0.00    +0.282 C 
ATOM     32  C   UNL     1     118.534 124.136 112.604  0.00  0.00    +0.205 C 
ATOM     33  C   UNL     1     119.041 123.802 114.011  0.00  0.00    +0.179 C 
ATOM     34  C   UNL     1     120.911 125.559 113.789  0.00  0.00    +0.150 C 
ATOM     35  C   UNL     1     119.855 124.924 114.711  0.00  0.00    +0.177 C 
ATOM     36  C   UNL     1     122.259 124.859 113.659  0.00  0.00    +0.041 C 
BRANCH  32  37
ATOM     37  O   UNL     1     117.139 124.494 112.492  0.00  0.00    -0.372 OA
ATOM     38  C   UNL     1     116.347 124.043 111.411  0.00  0.00    +0.194 C 
ENDBRANCH  32  37
BRANCH  33  39
ATOM     39  O   UNL     1     118.002 123.252 114.830  0.00  0.00    -0.386 OA
ATOM     40  H   UNL     1     118.164 123.554 115.745  0.00  0.00    +0.210 HD
ENDBRANCH  33  39
BRANCH  35  41
ATOM     41  O   UNL     1     118.969 125.893 115.315  0.00  0.00    -0.375 OA
ATOM     42  C   UNL     1     119.511 127.133 115.755  0.00  0.00    +0.194 C 
ENDBRANCH  35  41
ENDBRANCH  29  31
ENDBRANCH  10  29
BRANCH  21  43
ATOM     43  O   UNL     1     121.732 117.928 112.578  0.00  0.00    -0.347 OA
BRANCH  43  45
ATOM     44  O   UNL     1     120.073 119.308 113.362  0.00  0.00    -0.347 OA
ATOM     45  C   UNL     1     120.765 118.884 112.194  0.00  0.00    +0.251 C 
ATOM     46  C   UNL     1     119.885 118.409 111.016  0.00  0.00    +0.063 C 
ATOM     47  C   UNL     1     118.439 118.052 111.284  0.00  0.00    +0.026 C 
ATOM     48  C   UNL     1     117.867 118.725 112.519  0.00  0.00    +0.085 C 
ATOM     49  C   UNL     1     118.894 118.581 113.676  0.00  0.00    +0.135 C 
ATOM     50  C   UNL     1     119.233 117.132 114.054  0.00  0.00    +0.039 C 
BRANCH  48  51
ATOM     51  N   UNL     1     117.360 120.093 112.211  0.00  0.00    -0.303 NA
ATOM     52  C   UNL     1     116.789 120.157 110.870  0.00  0.00    +0.105 C 
ATOM     53  C   UNL     1     116.435 120.709 113.162  0.00  0.00    +0.105 C 
ENDBRANCH  48  51
ENDBRANCH  43  45
ENDBRANCH  21  43
TORSDOF 9
ENDMDL
MODEL 6
REMARK VINA RESULT:      -8.3      1.802      2.723
REMARK  Name = 
REMARK  18 active torsions:
REMARK  status: ('A' for Active; 'I' for Inactive)
REMARK    1  A    between atoms: O_1  and  C_18
REMARK    2  A    between atoms: O_1  and  C_27
REMARK    3  A    between atoms: O_5  and  C_30
REMARK    4  A    between atoms: O_5  and  C_44
REMARK    5  A    between atoms: O_6  and  C_31
REMARK    6  A    between atoms: O_6  and  C_41
REMARK    7  A    between atoms: O_8  and  C_32
REMARK    8  A    between atoms: O_9  and  C_35
REMARK    9  A    between atoms: O_9  and  C_49
REMARK   10  A    between atoms: N_11  and  C_46
REMARK   11  A    between atoms: N_11  and  C_51
REMARK   12  A    between atoms: N_11  and  C_52
REMARK   13  A    between atoms: C_20  and  C_25
REMARK   14  A    between atoms: C_28  and  C_33
REMARK   15  A    between atoms: C_34  and  C_40
REMARK   16  A    between atoms: C_37  and  C_42
REMARK   17  A    between atoms: C_42  and  C_48
REMARK   18  A    between atoms: C_47  and  C_50
REMARK                            x       y       z     vdW  Elec       q    Type
REMARK                         _______ _______ _______ _____ _____    ______ ____
ROOT
ATOM      1  O   UNL     1     119.496 126.031 109.661  0.00  0.00    -0.292 OA
ATOM      2  O   UNL     1     116.953 125.274 113.660  0.00  0.00    -0.461 OA
ATOM      3  O   UNL     1     115.935 123.428 112.992  0.00  0.00    -0.251 OA
ATOM      4  C   UNL     1     118.974 120.413 109.846  0.00  0.00    +0.006 C 
ATOM      5  C   UNL     1     118.471 121.643 109.099  0.00  0.00    +0.023 C 
ATOM      6  C   UNL     1     117.852 119.464 110.348  0.00  0.00    +0.021 C 
ATOM      7  C   UNL     1     117.269 122.338 109.812  0.00  0.00    +0.027 C 
ATOM      8  C   UNL     1     119.910 119.487 109.023  0.00  0.00    +0.036 C 
ATOM      9  C   UNL     1     118.055 118.174 109.558  0.00  0.00    +0.039 C 
ATOM     10  C   UNL     1     119.585 118.108 109.611  0.00  0.00    +0.122 C 
ATOM     11  C   UNL     1     117.954 123.368 110.760  0.00  0.00    +0.040 C 
ATOM     12  C   UNL     1     116.484 120.023 110.523  0.00  0.00    -0.073 C 
ATOM     13  C   UNL     1     119.507 122.739 109.072  0.00  0.00    -0.015 C 
ATOM     14  C   UNL     1     116.279 121.360 110.408  0.00  0.00    -0.023 C 
ATOM     15  C   UNL     1     119.203 123.718 109.938  0.00  0.00    -0.004 C 
ATOM     16  C   UNL     1     117.102 124.564 111.273  0.00  0.00    +0.129 C 
ATOM     17  C   UNL     1     115.478 119.043 111.053  0.00  0.00    +0.039 C 
ATOM     18  C   UNL     1     120.007 124.982 110.048  0.00  0.00    +0.164 C 
ATOM     19  C   UNL     1     121.408 124.939 110.694  0.00  0.00    +0.086 C 
ATOM     20  C   UNL     1     116.673 124.363 112.713  0.00  0.00    +0.308 C 
ATOM     21  C   UNL     1     121.425 124.792 112.257  0.00  0.00    +0.132 C 
ATOM     22  C   UNL     1     122.260 126.160 110.296  0.00  0.00    +0.018 C 
ATOM     23  C   UNL     1     120.144 124.120 112.755  0.00  0.00    +0.032 C 
ATOM     24  C   UNL     1     118.135 126.041 114.120  0.00  0.00    +0.176 C 
ATOM     25  C   UNL     1     119.692 123.932 114.183  0.00  0.00    +0.006 C 
ATOM     26  C   UNL     1     119.211 125.201 114.853  0.00  0.00    +0.045 C 
ENDROOT
BRANCH  24  27
ATOM     27  C   UNL     1     118.692 127.093 113.155  0.00  0.00    +0.041 C 
ATOM     28  C   UNL     1     119.947 127.752 113.706  0.00  0.00    +0.007 C 
ENDBRANCH  24  27
BRANCH  10  29
ATOM     29  O   UNL     1     120.030 118.215 110.956  0.00  0.00    -0.345 OA
BRANCH  29  31
ATOM     30  O   UNL     1     119.134 116.886 112.581  0.00  0.00    -0.343 OA
ATOM     31  C   UNL     1     120.312 117.158 111.841  0.00  0.00    +0.282 C 
ATOM     32  C   UNL     1     121.656 117.231 112.594  0.00  0.00    +0.205 C 
ATOM     33  C   UNL     1     121.475 117.826 113.994  0.00  0.00    +0.179 C 
ATOM     34  C   UNL     1     118.919 117.562 113.809  0.00  0.00    +0.150 C 
ATOM     35  C   UNL     1     120.155 117.440 114.718  0.00  0.00    +0.177 C 
ATOM     36  C   UNL     1     118.271 118.935 113.666  0.00  0.00    +0.041 C 
BRANCH  32  37
ATOM     37  O   UNL     1     122.546 116.099 112.488  0.00  0.00    -0.372 OA
ATOM     38  C   UNL     1     123.474 115.987 111.427  0.00  0.00    +0.194 C 
ENDBRANCH  32  37
BRANCH  33  39
ATOM     39  O   UNL     1     122.644 117.646 114.801  0.00  0.00    -0.386 OA
ATOM     40  H   UNL     1     123.183 116.948 114.378  0.00  0.00    +0.210 HD
ENDBRANCH  33  39
BRANCH  35  41
ATOM     41  O   UNL     1     120.279 116.142 115.339  0.00  0.00    -0.375 OA
ATOM     42  C   UNL     1     119.094 115.417 115.648  0.00  0.00    +0.194 C 
ENDBRANCH  35  41
ENDBRANCH  29  31
ENDBRANCH  10  29
BRANCH  21  43
ATOM     43  O   UNL     1     122.683 124.176 112.528  0.00  0.00    -0.347 OA
BRANCH  43  45
ATOM     44  O   UNL     1     123.161 122.056 113.268  0.00  0.00    -0.347 OA
ATOM     45  C   UNL     1     122.928 122.848 112.111  0.00  0.00    +0.251 C 
ATOM     46  C   UNL     1     123.994 122.755 110.996  0.00  0.00    +0.063 C 
ATOM     47  C   UNL     1     125.352 122.180 111.332  0.00  0.00    +0.026 C 
ATOM     48  C   UNL     1     125.339 121.255 112.537  0.00  0.00    +0.085 C 
ATOM     49  C   UNL     1     124.519 121.935 113.668  0.00  0.00    +0.135 C 
ATOM     50  C   UNL     1     125.071 123.290 114.132  0.00  0.00    +0.039 C 
BRANCH  48  51
ATOM     51  N   UNL     1     124.965 119.863 112.153  0.00  0.00    -0.303 NA
ATOM     52  C   UNL     1     125.356 119.570 110.778  0.00  0.00    +0.105 C 
ATOM     53  C   UNL     1     125.401 118.774 113.025  0.00  0.00    +0.105 C 
ENDBRANCH  48  51
ENDBRANCH  43  45
ENDBRANCH  21  43
TORSDOF 9
ENDMDL
MODEL 7
REMARK VINA RESULT:      -7.9     42.391     46.421
REMARK  Name = 
REMARK  18 active torsions:
REMARK  status: ('A' for Active; 'I' for Inactive)
REMARK    1  A    between atoms: O_1  and  C_18
REMARK    2  A    between atoms: O_1  and  C_27
REMARK    3  A    between atoms: O_5  and  C_30
REMARK    4  A    between atoms: O_5  and  C_44
REMARK    5  A    between atoms: O_6  and  C_31
REMARK    6  A    between atoms: O_6  and  C_41
REMARK    7  A    between atoms: O_8  and  C_32
REMARK    8  A    between atoms: O_9  and  C_35
REMARK    9  A    between atoms: O_9  and  C_49
REMARK   10  A    between atoms: N_11  and  C_46
REMARK   11  A    between atoms: N_11  and  C_51
REMARK   12  A    between atoms: N_11  and  C_52
REMARK   13  A    between atoms: C_20  and  C_25
REMARK   14  A    between atoms: C_28  and  C_33
REMARK   15  A    between atoms: C_34  and  C_40
REMARK   16  A    between atoms: C_37  and  C_42
REMARK   17  A    between atoms: C_42  and  C_48
REMARK   18  A    between atoms: C_47  and  C_50
REMARK                            x       y       z     vdW  Elec       q    Type
REMARK                         _______ _______ _______ _____ _____    ______ ____
ROOT
ATOM      1  O   UNL     1     121.063 136.266 157.581  0.00  0.00    -0.292 OA
ATOM      2  O   UNL     1     124.326 134.929 160.836  0.00  0.00    -0.461 OA
ATOM      3  O   UNL     1     123.623 132.847 161.090  0.00  0.00    -0.251 OA
ATOM      4  C   UNL     1     121.720 130.746 156.596  0.00  0.00    +0.006 C 
ATOM      5  C   UNL     1     120.739 131.754 157.184  0.00  0.00    +0.023 C 
ATOM      6  C   UNL     1     122.015 129.528 157.515  0.00  0.00    +0.021 C 
ATOM      7  C   UNL     1     121.035 132.092 158.678  0.00  0.00    +0.027 C 
ATOM      8  C   UNL     1     121.274 130.106 155.254  0.00  0.00    +0.036 C 
ATOM      9  C   UNL     1     121.451 128.329 156.759  0.00  0.00    +0.039 C 
ATOM     10  C   UNL     1     121.905 128.710 155.345  0.00  0.00    +0.122 C 
ATOM     11  C   UNL     1     122.010 133.306 158.589  0.00  0.00    +0.040 C 
ATOM     12  C   UNL     1     121.768 129.672 158.975  0.00  0.00    -0.073 C 
ATOM     13  C   UNL     1     120.861 133.101 156.517  0.00  0.00    -0.015 C 
ATOM     14  C   UNL     1     121.458 130.889 159.492  0.00  0.00    -0.023 C 
ATOM     15  C   UNL     1     121.506 133.976 157.304  0.00  0.00    -0.004 C 
ATOM     16  C   UNL     1     122.151 134.219 159.841  0.00  0.00    +0.129 C 
ATOM     17  C   UNL     1     122.125 128.460 159.785  0.00  0.00    +0.039 C 
ATOM     18  C   UNL     1     121.681 135.422 156.935  0.00  0.00    +0.164 C 
ATOM     19  C   UNL     1     122.669 135.806 155.813  0.00  0.00    +0.086 C 
ATOM     20  C   UNL     1     123.445 133.947 160.584  0.00  0.00    +0.308 C 
ATOM     21  C   UNL     1     124.189 135.719 156.194  0.00  0.00    +0.132 C 
ATOM     22  C   UNL     1     122.373 137.210 155.246  0.00  0.00    +0.018 C 
ATOM     23  C   UNL     1     124.409 134.721 157.331  0.00  0.00    +0.032 C 
ATOM     24  C   UNL     1     124.989 136.019 160.083  0.00  0.00    +0.176 C 
ATOM     25  C   UNL     1     125.684 134.455 158.096  0.00  0.00    +0.006 C 
ATOM     26  C   UNL     1     126.062 135.550 159.069  0.00  0.00    +0.045 C 
ENDROOT
BRANCH  24  27
ATOM     27  C   UNL     1     124.092 137.157 159.584  0.00  0.00    +0.041 C 
ATOM     28  C   UNL     1     123.649 138.063 160.721  0.00  0.00    +0.007 C 
ENDBRANCH  24  27
BRANCH  10  29
ATOM     29  O   UNL     1     123.299 128.983 155.340  0.00  0.00    -0.345 OA
BRANCH  29  31
ATOM     30  O   UNL     1     125.142 129.112 154.001  0.00  0.00    -0.343 OA
ATOM     31  C   UNL     1     124.309 128.222 154.723  0.00  0.00    +0.282 C 
ATOM     32  C   UNL     1     123.864 126.911 154.044  0.00  0.00    +0.205 C 
ATOM     33  C   UNL     1     123.651 127.112 152.540  0.00  0.00    +0.179 C 
ATOM     34  C   UNL     1     124.837 129.396 152.645  0.00  0.00    +0.150 C 
ATOM     35  C   UNL     1     124.639 128.093 151.850  0.00  0.00    +0.177 C 
ATOM     36  C   UNL     1     123.816 130.513 152.451  0.00  0.00    +0.041 C 
BRANCH  32  37
ATOM     37  O   UNL     1     124.529 125.692 154.440  0.00  0.00    -0.372 OA
ATOM     38  C   UNL     1     125.930 125.644 154.630  0.00  0.00    +0.194 C 
ENDBRANCH  32  37
BRANCH  33  39
ATOM     39  O   UNL     1     123.513 125.862 151.854  0.00  0.00    -0.386 OA
ATOM     40  H   UNL     1     124.051 125.205 152.337  0.00  0.00    +0.210 HD
ENDBRANCH  33  39
BRANCH  35  41
ATOM     41  O   UNL     1     125.880 127.424 151.535  0.00  0.00    -0.375 OA
ATOM     42  C   UNL     1     126.330 127.423 150.185  0.00  0.00    +0.194 C 
ENDBRANCH  35  41
ENDBRANCH  29  31
ENDBRANCH  10  29
BRANCH  21  43
ATOM     43  O   UNL     1     124.842 135.503 154.944  0.00  0.00    -0.347 OA
BRANCH  43  45
ATOM     44  O   UNL     1     126.607 135.771 153.500  0.00  0.00    -0.347 OA
ATOM     45  C   UNL     1     125.809 136.423 154.480  0.00  0.00    +0.251 C 
ATOM     46  C   UNL     1     126.575 137.120 155.627  0.00  0.00    +0.063 C 
ATOM     47  C   UNL     1     128.024 136.755 155.864  0.00  0.00    +0.026 C 
ATOM     48  C   UNL     1     128.717 136.192 154.635  0.00  0.00    +0.085 C 
ATOM     49  C   UNL     1     127.781 135.136 153.985  0.00  0.00    +0.135 C 
ATOM     50  C   UNL     1     127.422 133.953 154.896  0.00  0.00    +0.039 C 
BRANCH  48  51
ATOM     51  N   UNL     1     129.246 137.278 153.760  0.00  0.00    -0.303 NA
ATOM     52  C   UNL     1     129.883 138.329 154.547  0.00  0.00    +0.105 C 
ATOM     53  C   UNL     1     130.126 136.897 152.657  0.00  0.00    +0.105 C 
ENDBRANCH  48  51
ENDBRANCH  43  45
ENDBRANCH  21  43
TORSDOF 9
ENDMDL
MODEL 8
REMARK VINA RESULT:      -7.8     64.972     69.554
REMARK  Name = 
REMARK  18 active torsions:
REMARK  status: ('A' for Active; 'I' for Inactive)
REMARK    1  A    between atoms: O_1  and  C_18
REMARK    2  A    between atoms: O_1  and  C_27
REMARK    3  A    between atoms: O_5  and  C_30
REMARK    4  A    between atoms: O_5  and  C_44
REMARK    5  A    between atoms: O_6  and  C_31
REMARK    6  A    between atoms: O_6  and  C_41
REMARK    7  A    between atoms: O_8  and  C_32
REMARK    8  A    between atoms: O_9  and  C_35
REMARK    9  A    between atoms: O_9  and  C_49
REMARK   10  A    between atoms: N_11  and  C_46
REMARK   11  A    between atoms: N_11  and  C_51
REMARK   12  A    between atoms: N_11  and  C_52
REMARK   13  A    between atoms: C_20  and  C_25
REMARK   14  A    between atoms: C_28  and  C_33
REMARK   15  A    between atoms: C_34  and  C_40
REMARK   16  A    between atoms: C_37  and  C_42
REMARK   17  A    between atoms: C_42  and  C_48
REMARK   18  A    between atoms: C_47  and  C_50
REMARK                            x       y       z     vdW  Elec       q    Type
REMARK                         _______ _______ _______ _____ _____    ______ ____
ROOT
ATOM      1  O   UNL     1     114.183 136.097  42.789  0.00  0.00    -0.292 OA
ATOM      2  O   UNL     1     118.596 135.045  44.354  0.00  0.00    -0.461 OA
ATOM      3  O   UNL     1     119.678 136.564  43.164  0.00  0.00    -0.251 OA
ATOM      4  C   UNL     1     116.894 141.041  42.504  0.00  0.00    +0.006 C 
ATOM      5  C   UNL     1     116.339 139.922  41.630  0.00  0.00    +0.023 C 
ATOM      6  C   UNL     1     118.364 141.433  42.189  0.00  0.00    +0.021 C 
ATOM      7  C   UNL     1     117.334 138.731  41.463  0.00  0.00    +0.027 C 
ATOM      8  C   UNL     1     116.120 142.383  42.416  0.00  0.00    +0.036 C 
ATOM      9  C   UNL     1     118.278 142.864  41.667  0.00  0.00    +0.039 C 
ATOM     10  C   UNL     1     117.236 143.408  42.652  0.00  0.00    +0.122 C 
ATOM     11  C   UNL     1     116.976 137.788  42.652  0.00  0.00    +0.040 C 
ATOM     12  C   UNL     1     119.224 140.436  41.494  0.00  0.00    -0.073 C 
ATOM     13  C   UNL     1     115.146 139.258  42.269  0.00  0.00    -0.015 C 
ATOM     14  C   UNL     1     118.773 139.170  41.303  0.00  0.00    -0.023 C 
ATOM     15  C   UNL     1     115.470 138.061  42.781  0.00  0.00    -0.004 C 
ATOM     16  C   UNL     1     117.406 136.296  42.553  0.00  0.00    +0.129 C 
ATOM     17  C   UNL     1     120.638 140.888  41.273  0.00  0.00    +0.039 C 
ATOM     18  C   UNL     1     114.454 137.136  43.388  0.00  0.00    +0.164 C 
ATOM     19  C   UNL     1     113.836 137.480  44.760  0.00  0.00    +0.086 C 
ATOM     20  C   UNL     1     118.618 136.010  43.418  0.00  0.00    +0.308 C 
ATOM     21  C   UNL     1     114.776 137.259  45.997  0.00  0.00    +0.132 C 
ATOM     22  C   UNL     1     112.511 136.726  44.996  0.00  0.00    +0.018 C 
ATOM     23  C   UNL     1     116.246 137.346  45.587  0.00  0.00    +0.032 C 
ATOM     24  C   UNL     1     117.707 134.618  45.459  0.00  0.00    +0.176 C 
ATOM     25  C   UNL     1     117.462 137.042  46.429  0.00  0.00    +0.006 C 
ATOM     26  C   UNL     1     117.687 135.567  46.683  0.00  0.00    +0.045 C 
ENDROOT
BRANCH  24  27
ATOM     27  C   UNL     1     116.337 134.056  45.064  0.00  0.00    +0.041 C 
ATOM     28  C   UNL     1     115.477 133.763  46.282  0.00  0.00    +0.007 C 
ENDBRANCH  24  27
BRANCH  10  29
ATOM     29  O   UNL     1     117.644 143.143  43.986  0.00  0.00    -0.345 OA
BRANCH  29  31
ATOM     30  O   UNL     1     117.312 142.884  46.229  0.00  0.00    -0.343 OA
ATOM     31  C   UNL     1     117.208 143.799  45.151  0.00  0.00    +0.282 C 
ATOM     32  C   UNL     1     115.926 144.648  45.024  0.00  0.00    +0.205 C 
ATOM     33  C   UNL     1     114.694 143.862  45.485  0.00  0.00    +0.179 C 
ATOM     34  C   UNL     1     116.201 142.061  46.545  0.00  0.00    +0.150 C 
ATOM     35  C   UNL     1     114.924 142.907  46.689  0.00  0.00    +0.177 C 
ATOM     36  C   UNL     1     116.118 140.777  45.726  0.00  0.00    +0.041 C 
BRANCH  32  37
ATOM     37  O   UNL     1     115.995 146.031  45.433  0.00  0.00    -0.372 OA
ATOM     38  C   UNL     1     115.812 147.084  44.506  0.00  0.00    +0.194 C 
ENDBRANCH  32  37
BRANCH  33  39
ATOM     39  O   UNL     1     113.552 144.712  45.638  0.00  0.00    -0.386 OA
ATOM     40  H   UNL     1     113.745 145.545  45.166  0.00  0.00    +0.210 HD
ENDBRANCH  33  39
BRANCH  35  41
ATOM     41  O   UNL     1     114.862 143.638  47.935  0.00  0.00    -0.375 OA
ATOM     42  C   UNL     1     115.274 142.985  49.130  0.00  0.00    +0.194 C 
ENDBRANCH  35  41
ENDBRANCH  29  31
ENDBRANCH  10  29
BRANCH  21  43
ATOM     43  O   UNL     1     114.272 138.169  46.975  0.00  0.00    -0.347 OA
BRANCH  43  45
ATOM     44  O   UNL     1     114.062 138.783  49.177  0.00  0.00    -0.347 OA
ATOM     45  C   UNL     1     113.920 137.704  48.262  0.00  0.00    +0.251 C 
ATOM     46  C   UNL     1     114.636 136.389  48.643  0.00  0.00    +0.063 C 
ATOM     47  C   UNL     1     115.721 136.429  49.697  0.00  0.00    +0.026 C 
ATOM     48  C   UNL     1     115.599 137.606  50.650  0.00  0.00    +0.085 C 
ATOM     49  C   UNL     1     115.327 138.887  49.814  0.00  0.00    +0.135 C 
ATOM     50  C   UNL     1     116.422 139.230  48.794  0.00  0.00    +0.039 C 
BRANCH  48  51
ATOM     51  N   UNL     1     114.667 137.304  51.775  0.00  0.00    -0.303 NA
ATOM     52  C   UNL     1     115.062 136.087  52.478  0.00  0.00    +0.105 C 
ATOM     53  C   UNL     1     114.406 138.364  52.748  0.00  0.00    +0.105 C 
ENDBRANCH  48  51
ENDBRANCH  43  45
ENDBRANCH  21  43
TORSDOF 9
ENDMDL
MODEL 9
REMARK VINA RESULT:      -7.6     79.514     83.273
REMARK  Name = 
REMARK  18 active torsions:
REMARK  status: ('A' for Active; 'I' for Inactive)
REMARK    1  A    between atoms: O_1  and  C_18
REMARK    2  A    between atoms: O_1  and  C_27
REMARK    3  A    between atoms: O_5  and  C_30
REMARK    4  A    between atoms: O_5  and  C_44
REMARK    5  A    between atoms: O_6  and  C_31
REMARK    6  A    between atoms: O_6  and  C_41
REMARK    7  A    between atoms: O_8  and  C_32
REMARK    8  A    between atoms: O_9  and  C_35
REMARK    9  A    between atoms: O_9  and  C_49
REMARK   10  A    between atoms: N_11  and  C_46
REMARK   11  A    between atoms: N_11  and  C_51
REMARK   12  A    between atoms: N_11  and  C_52
REMARK   13  A    between atoms: C_20  and  C_25
REMARK   14  A    between atoms: C_28  and  C_33
REMARK   15  A    between atoms: C_34  and  C_40
REMARK   16  A    between atoms: C_37  and  C_42
REMARK   17  A    between atoms: C_42  and  C_48
REMARK   18  A    between atoms: C_47  and  C_50
REMARK                            x       y       z     vdW  Elec       q    Type
REMARK                         _______ _______ _______ _____ _____    ______ ____
ROOT
ATOM      1  O   UNL     1     103.859 136.132  28.894  0.00  0.00    -0.292 OA
ATOM      2  O   UNL     1     105.937 138.833  32.273  0.00  0.00    -0.461 OA
ATOM      3  O   UNL     1     105.419 137.555  34.002  0.00  0.00    -0.251 OA
ATOM      4  C   UNL     1     105.403 132.376  32.816  0.00  0.00    +0.006 C 
ATOM      5  C   UNL     1     104.177 133.071  32.234  0.00  0.00    +0.023 C 
ATOM      6  C   UNL     1     105.496 132.432  34.366  0.00  0.00    +0.021 C 
ATOM      7  C   UNL     1     103.908 134.468  32.876  0.00  0.00    +0.027 C 
ATOM      8  C   UNL     1     105.514 130.863  32.487  0.00  0.00    +0.036 C 
ATOM      9  C   UNL     1     105.357 130.980  34.814  0.00  0.00    +0.039 C 
ATOM     10  C   UNL     1     106.222 130.320  33.734  0.00  0.00    +0.122 C 
ATOM     11  C   UNL     1     104.718 135.447  31.971  0.00  0.00    +0.040 C 
ATOM     12  C   UNL     1     104.751 133.507  35.077  0.00  0.00    -0.073 C 
ATOM     13  C   UNL     1     104.374 133.417  30.779  0.00  0.00    -0.015 C 
ATOM     14  C   UNL     1     104.154 134.499  34.368  0.00  0.00    -0.023 C 
ATOM     15  C   UNL     1     104.614 134.728  30.619  0.00  0.00    -0.004 C 
ATOM     16  C   UNL     1     104.323 136.951  31.992  0.00  0.00    +0.129 C 
ATOM     17  C   UNL     1     104.938 133.506  36.566  0.00  0.00    +0.039 C 
ATOM     18  C   UNL     1     104.747 135.368  29.266  0.00  0.00    +0.164 C 
ATOM     19  C   UNL     1     106.012 135.103  28.421  0.00  0.00    +0.086 C 
ATOM     20  C   UNL     1     105.306 137.772  32.804  0.00  0.00    +0.308 C 
ATOM     21  C   UNL     1     107.310 135.843  28.900  0.00  0.00    +0.132 C 
ATOM     22  C   UNL     1     105.778 135.415  26.929  0.00  0.00    +0.018 C 
ATOM     23  C   UNL     1     107.235 136.165  30.393  0.00  0.00    +0.032 C 
ATOM     24  C   UNL     1     106.697 139.145  31.039  0.00  0.00    +0.176 C 
ATOM     25  C   UNL     1     108.192 136.998  31.211  0.00  0.00    +0.006 C 
ATOM     26  C   UNL     1     108.095 138.486  30.952  0.00  0.00    +0.045 C 
ENDROOT
BRANCH  24  27
ATOM     27  C   UNL     1     105.907 139.148  29.726  0.00  0.00    +0.041 C 
ATOM     28  C   UNL     1     106.783 139.532  28.545  0.00  0.00    +0.007 C 
ENDBRANCH  24  27
BRANCH  10  29
ATOM     29  O   UNL     1     107.496 130.946  33.684  0.00  0.00    -0.345 OA
BRANCH  29  31
ATOM     30  O   UNL     1     109.653 131.471  33.154  0.00  0.00    -0.343 OA
ATOM     31  C   UNL     1     108.622 130.518  32.956  0.00  0.00    +0.282 C 
ATOM     32  C   UNL     1     108.362 129.997  31.528  0.00  0.00    +0.205 C 
ATOM     33  C   UNL     1     108.602 131.094  30.487  0.00  0.00    +0.179 C 
ATOM     34  C   UNL     1     109.765 132.562  32.255  0.00  0.00    +0.150 C 
ATOM     35  C   UNL     1     109.774 132.066  30.798  0.00  0.00    +0.177 C 
ATOM     36  C   UNL     1     108.875 133.753  32.598  0.00  0.00    +0.041 C 
BRANCH  32  37
ATOM     37  O   UNL     1     108.849 128.679  31.197  0.00  0.00    -0.372 OA
ATOM     38  C   UNL     1     108.648 127.579  32.064  0.00  0.00    +0.194 C 
ENDBRANCH  32  37
BRANCH  33  39
ATOM     39  O   UNL     1     108.638 130.562  29.157  0.00  0.00    -0.386 OA
ATOM     40  H   UNL     1     108.454 129.604  29.223  0.00  0.00    +0.210 HD
ENDBRANCH  33  39
BRANCH  35  41
ATOM     41  O   UNL     1     111.035 131.482  30.403  0.00  0.00    -0.375 OA
ATOM     42  C   UNL     1     111.620 131.890  29.172  0.00  0.00    +0.194 C 
ENDBRANCH  35  41
ENDBRANCH  29  31
ENDBRANCH  10  29
BRANCH  21  43
ATOM     43  O   UNL     1     108.370 135.018  28.420  0.00  0.00    -0.347 OA
BRANCH  43  45
ATOM     44  O   UNL     1     110.475 134.812  27.526  0.00  0.00    -0.347 OA
ATOM     45  C   UNL     1     109.230 135.487  27.401  0.00  0.00    +0.251 C 
ATOM     46  C   UNL     1     109.295 137.030  27.334  0.00  0.00    +0.063 C 
ATOM     47  C   UNL     1     110.561 137.726  27.784  0.00  0.00    +0.026 C 
ATOM     48  C   UNL     1     111.797 136.845  27.712  0.00  0.00    +0.085 C 
ATOM     49  C   UNL     1     111.450 135.462  28.328  0.00  0.00    +0.135 C 
ATOM     50  C   UNL     1     111.002 135.510  29.796  0.00  0.00    +0.039 C 
BRANCH  48  51
ATOM     51  N   UNL     1     112.401 136.863  26.349  0.00  0.00    -0.303 NA
ATOM     52  C   UNL     1     112.720 138.224  25.928  0.00  0.00    +0.105 C 
ATOM     53  C   UNL     1     113.553 135.996  26.101  0.00  0.00    +0.105 C 
ENDBRANCH  48  51
ENDBRANCH  43  45
ENDBRANCH  21  43
TORSDOF 9
ENDMDL
MODEL 10
REMARK VINA RESULT:      -7.5     42.566     46.768
REMARK  Name = 
REMARK  18 active torsions:
REMARK  status: ('A' for Active; 'I' for Inactive)
REMARK    1  A    between atoms: O_1  and  C_18
REMARK    2  A    between atoms: O_1  and  C_27
REMARK    3  A    between atoms: O_5  and  C_30
REMARK    4  A    between atoms: O_5  and  C_44
REMARK    5  A    between atoms: O_6  and  C_31
REMARK    6  A    between atoms: O_6  and  C_41
REMARK    7  A    between atoms: O_8  and  C_32
REMARK    8  A    between atoms: O_9  and  C_35
REMARK    9  A    between atoms: O_9  and  C_49
REMARK   10  A    between atoms: N_11  and  C_46
REMARK   11  A    between atoms: N_11  and  C_51
REMARK   12  A    between atoms: N_11  and  C_52
REMARK   13  A    between atoms: C_20  and  C_25
REMARK   14  A    between atoms: C_28  and  C_33
REMARK   15  A    between atoms: C_34  and  C_40
REMARK   16  A    between atoms: C_37  and  C_42
REMARK   17  A    between atoms: C_42  and  C_48
REMARK   18  A    between atoms: C_47  and  C_50
REMARK                            x       y       z     vdW  Elec       q    Type
REMARK                         _______ _______ _______ _____ _____    ______ ____
ROOT
ATOM      1  O   UNL     1     120.720 134.882 159.778  0.00  0.00    -0.292 OA
ATOM      2  O   UNL     1     124.191 132.038 161.479  0.00  0.00    -0.461 OA
ATOM      3  O   UNL     1     123.250 130.108 160.947  0.00  0.00    -0.251 OA
ATOM      4  C   UNL     1     120.461 130.343 156.431  0.00  0.00    +0.006 C 
ATOM      5  C   UNL     1     119.721 131.044 157.564  0.00  0.00    +0.023 C 
ATOM      6  C   UNL     1     120.712 128.828 156.669  0.00  0.00    +0.021 C 
ATOM      7  C   UNL     1     120.270 130.665 158.975  0.00  0.00    +0.027 C 
ATOM      8  C   UNL     1     119.747 130.394 155.054  0.00  0.00    +0.036 C 
ATOM      9  C   UNL     1     119.886 128.127 155.594  0.00  0.00    +0.039 C 
ATOM     10  C   UNL     1     120.185 129.067 154.421  0.00  0.00    +0.122 C 
ATOM     11  C   UNL     1     121.381 131.729 159.232  0.00  0.00    +0.040 C 
ATOM     12  C   UNL     1     120.695 128.324 158.069  0.00  0.00    -0.073 C 
ATOM     13  C   UNL     1     119.934 132.537 157.526  0.00  0.00    -0.015 C 
ATOM     14  C   UNL     1     120.632 129.201 159.104  0.00  0.00    -0.023 C 
ATOM     15  C   UNL     1     120.798 132.930 158.474  0.00  0.00    -0.004 C 
ATOM     16  C   UNL     1     121.821 131.980 160.702  0.00  0.00    +0.129 C 
ATOM     17  C   UNL     1     120.991 126.859 158.202  0.00  0.00    +0.039 C 
ATOM     18  C   UNL     1     121.118 134.375 158.732  0.00  0.00    +0.164 C 
ATOM     19  C   UNL     1     121.981 135.155 157.717  0.00  0.00    +0.086 C 
ATOM     20  C   UNL     1     123.156 131.326 161.002  0.00  0.00    +0.308 C 
ATOM     21  C   UNL     1     123.513 134.813 157.733  0.00  0.00    +0.132 C 
ATOM     22  C   UNL     1     121.806 136.680 157.869  0.00  0.00    +0.018 C 
ATOM     23  C   UNL     1     123.751 133.402 158.273  0.00  0.00    +0.032 C 
ATOM     24  C   UNL     1     124.886 133.305 161.153  0.00  0.00    +0.176 C 
ATOM     25  C   UNL     1     125.071 132.745 158.597  0.00  0.00    +0.006 C 
ATOM     26  C   UNL     1     125.731 133.269 159.855  0.00  0.00    +0.045 C 
ENDROOT
BRANCH  24  27
ATOM     27  C   UNL     1     124.094 134.600 161.364  0.00  0.00    +0.041 C 
ATOM     28  C   UNL     1     124.923 135.827 161.024  0.00  0.00    +0.007 C 
ENDBRANCH  24  27
BRANCH  10  29
ATOM     29  O   UNL     1     121.589 129.226 154.272  0.00  0.00    -0.345 OA
BRANCH  29  31
ATOM     30  O   UNL     1     122.960 127.594 153.455  0.00  0.00    -0.343 OA
ATOM     31  C   UNL     1     122.371 128.851 153.164  0.00  0.00    +0.282 C 
ATOM     32  C   UNL     1     123.251 129.952 152.538  0.00  0.00    +0.205 C 
ATOM     33  C   UNL     1     124.686 129.882 153.070  0.00  0.00    +0.179 C 
ATOM     34  C   UNL     1     124.231 127.557 154.083  0.00  0.00    +0.150 C 
ATOM     35  C   UNL     1     125.233 128.451 153.330  0.00  0.00    +0.177 C 
ATOM     36  C   UNL     1     124.184 127.661 155.604  0.00  0.00    +0.041 C 
BRANCH  32  37
ATOM     37  O   UNL     1     123.102 130.206 151.124  0.00  0.00    -0.372 OA
ATOM     38  C   UNL     1     122.075 129.592 150.369  0.00  0.00    +0.194 C 
ENDBRANCH  32  37
BRANCH  33  39
ATOM     39  O   UNL     1     125.574 130.703 152.303  0.00  0.00    -0.386 OA
ATOM     40  H   UNL     1     125.617 131.575 152.744  0.00  0.00    +0.210 HD
ENDBRANCH  33  39
BRANCH  35  41
ATOM     41  O   UNL     1     125.712 127.860 152.101  0.00  0.00    -0.375 OA
ATOM     42  C   UNL     1     127.038 127.345 152.063  0.00  0.00    +0.194 C 
ENDBRANCH  35  41
ENDBRANCH  29  31
ENDBRANCH  10  29
BRANCH  21  43
ATOM     43  O   UNL     1     123.948 135.134 156.412  0.00  0.00    -0.347 OA
BRANCH  43  45
ATOM     44  O   UNL     1     125.575 135.778 154.926  0.00  0.00    -0.347 OA
ATOM     45  C   UNL     1     125.031 136.021 156.217  0.00  0.00    +0.251 C 
ATOM     46  C   UNL     1     126.034 136.012 157.392  0.00  0.00    +0.063 C 
ATOM     47  C   UNL     1     127.394 135.383 157.184  0.00  0.00    +0.026 C 
ATOM     48  C   UNL     1     127.830 135.345 155.730  0.00  0.00    +0.085 C 
ATOM     49  C   UNL     1     126.637 134.837 154.874  0.00  0.00    +0.135 C 
ATOM     50  C   UNL     1     126.138 133.432 155.243  0.00  0.00    +0.039 C 
BRANCH  48  51
ATOM     51  N   UNL     1     128.479 136.624 155.320  0.00  0.00    -0.303 NA
ATOM     52  C   UNL     1     129.383 137.115 156.356  0.00  0.00    +0.105 C 
ATOM     53  C   UNL     1     129.158 136.661 154.026  0.00  0.00    +0.105 C 
ENDBRANCH  48  51
ENDBRANCH  43  45
ENDBRANCH  21  43
TORSDOF 9
ENDMDL
MODEL 11
REMARK VINA RESULT:      -7.5     17.559     21.617
REMARK  Name = 
REMARK  18 active torsions:
REMARK  status: ('A' for Active; 'I' for Inactive)
REMARK    1  A    between atoms: O_1  and  C_18
REMARK    2  A    between atoms: O_1  and  C_27
REMARK    3  A    between atoms: O_5  and  C_30
REMARK    4  A    between atoms: O_5  and  C_44
REMARK    5  A    between atoms: O_6  and  C_31
REMARK    6  A    between atoms: O_6  and  C_41
REMARK    7  A    between atoms: O_8  and  C_32
REMARK    8  A    between atoms: O_9  and  C_35
REMARK    9  A    between atoms: O_9  and  C_49
REMARK   10  A    between atoms: N_11  and  C_46
REMARK   11  A    between atoms: N_11  and  C_51
REMARK   12  A    between atoms: N_11  and  C_52
REMARK   13  A    between atoms: C_20  and  C_25
REMARK   14  A    between atoms: C_28  and  C_33
REMARK   15  A    between atoms: C_34  and  C_40
REMARK   16  A    between atoms: C_37  and  C_42
REMARK   17  A    between atoms: C_42  and  C_48
REMARK   18  A    between atoms: C_47  and  C_50
REMARK                            x       y       z     vdW  Elec       q    Type
REMARK                         _______ _______ _______ _____ _____    ______ ____
ROOT
ATOM      1  O   UNL     1     123.419 127.885 128.447  0.00  0.00    -0.292 OA
ATOM      2  O   UNL     1     126.309 124.422 126.808  0.00  0.00    -0.461 OA
ATOM      3  O   UNL     1     127.109 125.532 125.070  0.00  0.00    -0.251 OA
ATOM      4  C   UNL     1     127.636 130.735 126.004  0.00  0.00    +0.006 C 
ATOM      5  C   UNL     1     126.170 130.362 125.816  0.00  0.00    +0.023 C 
ATOM      6  C   UNL     1     128.532 130.457 124.766  0.00  0.00    +0.021 C 
ATOM      7  C   UNL     1     125.979 128.967 125.144  0.00  0.00    +0.027 C 
ATOM      8  C   UNL     1     127.894 132.232 126.327  0.00  0.00    +0.036 C 
ATOM      9  C   UNL     1     128.990 131.838 124.304  0.00  0.00    +0.039 C 
ATOM     10  C   UNL     1     129.263 132.464 125.676  0.00  0.00    +0.122 C 
ATOM     11  C   UNL     1     125.927 127.984 126.354  0.00  0.00    +0.040 C 
ATOM     12  C   UNL     1     128.066 129.454 123.771  0.00  0.00    -0.073 C 
ATOM     13  C   UNL     1     125.469 130.182 127.139  0.00  0.00    -0.015 C 
ATOM     14  C   UNL     1     126.974 128.693 124.038  0.00  0.00    -0.023 C 
ATOM     15  C   UNL     1     125.279 128.883 127.417  0.00  0.00    -0.004 C 
ATOM     16  C   UNL     1     125.275 126.589 126.132  0.00  0.00    +0.129 C 
ATOM     17  C   UNL     1     129.018 129.222 122.634  0.00  0.00    +0.039 C 
ATOM     18  C   UNL     1     124.515 128.415 128.622  0.00  0.00    +0.164 C 
ATOM     19  C   UNL     1     125.147 128.552 130.024  0.00  0.00    +0.086 C 
ATOM     20  C   UNL     1     126.324 125.501 126.007  0.00  0.00    +0.308 C 
ATOM     21  C   UNL     1     126.290 127.527 130.350  0.00  0.00    +0.132 C 
ATOM     22  C   UNL     1     124.084 128.490 131.140  0.00  0.00    +0.018 C 
ATOM     23  C   UNL     1     126.959 127.030 129.068  0.00  0.00    +0.032 C 
ATOM     24  C   UNL     1     126.191 124.141 128.258  0.00  0.00    +0.176 C 
ATOM     25  C   UNL     1     127.986 125.933 128.925  0.00  0.00    +0.006 C 
ATOM     26  C   UNL     1     127.430 124.536 129.100  0.00  0.00    +0.045 C 
ENDROOT
BRANCH  24  27
ATOM     27  C   UNL     1     124.843 124.459 128.914  0.00  0.00    +0.041 C 
ATOM     28  C   UNL     1     123.683 123.873 128.127  0.00  0.00    +0.007 C 
ENDBRANCH  24  27
BRANCH  10  29
ATOM     29  O   UNL     1     130.128 131.626 126.429  0.00  0.00    -0.345 OA
BRANCH  29  31
ATOM     30  O   UNL     1     132.262 131.288 125.696  0.00  0.00    -0.343 OA
ATOM     31  C   UNL     1     131.481 131.859 126.732  0.00  0.00    +0.282 C 
ATOM     32  C   UNL     1     131.910 131.624 128.195  0.00  0.00    +0.205 C 
ATOM     33  C   UNL     1     132.523 130.231 128.375  0.00  0.00    +0.179 C 
ATOM     34  C   UNL     1     132.697 129.943 125.821  0.00  0.00    +0.150 C 
ATOM     35  C   UNL     1     133.377 129.719 127.183  0.00  0.00    +0.177 C 
ATOM     36  C   UNL     1     131.680 128.908 125.351  0.00  0.00    +0.041 C 
BRANCH  32  37
ATOM     37  O   UNL     1     132.569 132.709 128.883  0.00  0.00    -0.372 OA
ATOM     38  C   UNL     1     133.683 133.372 128.317  0.00  0.00    +0.194 C 
ENDBRANCH  32  37
BRANCH  33  39
ATOM     39  O   UNL     1     133.174 130.100 129.644  0.00  0.00    -0.386 OA
ATOM     40  H   UNL     1     132.963 129.209 129.987  0.00  0.00    +0.210 HD
ENDBRANCH  33  39
BRANCH  35  41
ATOM     41  O   UNL     1     134.715 130.262 127.247  0.00  0.00    -0.375 OA
ATOM     42  C   UNL     1     135.584 130.069 126.137  0.00  0.00    +0.194 C 
ENDBRANCH  35  41
ENDBRANCH  29  31
ENDBRANCH  10  29
BRANCH  21  43
ATOM     43  O   UNL     1     127.080 128.199 131.330  0.00  0.00    -0.347 OA
BRANCH  43  45
ATOM     44  O   UNL     1     128.289 128.189 133.283  0.00  0.00    -0.347 OA
ATOM     45  C   UNL     1     127.084 127.748 132.670  0.00  0.00    +0.251 C 
ATOM     46  C   UNL     1     126.767 126.241 132.798  0.00  0.00    +0.063 C 
ATOM     47  C   UNL     1     127.879 125.294 133.190  0.00  0.00    +0.026 C 
ATOM     48  C   UNL     1     129.009 125.964 133.952  0.00  0.00    +0.085 C 
ATOM     49  C   UNL     1     129.380 127.283 133.218  0.00  0.00    +0.135 C 
ATOM     50  C   UNL     1     129.847 127.097 131.767  0.00  0.00    +0.039 C 
BRANCH  48  51
ATOM     51  N   UNL     1     128.711 126.046 135.411  0.00  0.00    -0.303 NA
ATOM     52  C   UNL     1     128.158 124.791 135.909  0.00  0.00    +0.105 C 
ATOM     53  C   UNL     1     129.781 126.492 136.302  0.00  0.00    +0.105 C 
ENDBRANCH  48  51
ENDBRANCH  43  45
ENDBRANCH  21  43
TORSDOF 9
ENDMDL
MODEL 12
REMARK VINA RESULT:      -7.2     66.665     70.518
REMARK  Name = 
REMARK  18 active torsions:
REMARK  status: ('A' for Active; 'I' for Inactive)
REMARK    1  A    between atoms: O_1  and  C_18
REMARK    2  A    between atoms: O_1  and  C_27
REMARK    3  A    between atoms: O_5  and  C_30
REMARK    4  A    between atoms: O_5  and  C_44
REMARK    5  A    between atoms: O_6  and  C_31
REMARK    6  A    between atoms: O_6  and  C_41
REMARK    7  A    between atoms: O_8  and  C_32
REMARK    8  A    between atoms: O_9  and  C_35
REMARK    9  A    between atoms: O_9  and  C_49
REMARK   10  A    between atoms: N_11  and  C_46
REMARK   11  A    between atoms: N_11  and  C_51
REMARK   12  A    between atoms: N_11  and  C_52
REMARK   13  A    between atoms: C_20  and  C_25
REMARK   14  A    between atoms: C_28  and  C_33
REMARK   15  A    between atoms: C_34  and  C_40
REMARK   16  A    between atoms: C_37  and  C_42
REMARK   17  A    between atoms: C_42  and  C_48
REMARK   18  A    between atoms: C_47  and  C_50
REMARK                            x       y       z     vdW  Elec       q    Type
REMARK                         _______ _______ _______ _____ _____    ______ ____
ROOT
ATOM      1  O   UNL     1     116.933 137.776  48.461  0.00  0.00    -0.292 OA
ATOM      2  O   UNL     1     118.372 135.731  44.365  0.00  0.00    -0.461 OA
ATOM      3  O   UNL     1     116.704 134.290  44.177  0.00  0.00    -0.251 OA
ATOM      4  C   UNL     1     112.099 136.208  46.003  0.00  0.00    +0.006 C 
ATOM      5  C   UNL     1     113.034 135.851  47.153  0.00  0.00    +0.023 C 
ATOM      6  C   UNL     1     111.703 135.006  45.101  0.00  0.00    +0.021 C 
ATOM      7  C   UNL     1     114.208 134.920  46.716  0.00  0.00    +0.027 C 
ATOM      8  C   UNL     1     110.738 136.819  46.432  0.00  0.00    +0.036 C 
ATOM      9  C   UNL     1     110.201 134.841  45.315  0.00  0.00    +0.039 C 
ATOM     10  C   UNL     1     109.804 136.321  45.323  0.00  0.00    +0.122 C 
ATOM     11  C   UNL     1     115.330 135.920  46.302  0.00  0.00    +0.040 C 
ATOM     12  C   UNL     1     112.591 133.811  45.092  0.00  0.00    -0.073 C 
ATOM     13  C   UNL     1     113.761 137.065  47.675  0.00  0.00    -0.015 C 
ATOM     14  C   UNL     1     113.791 133.855  45.725  0.00  0.00    -0.023 C 
ATOM     15  C   UNL     1     115.037 137.082  47.261  0.00  0.00    -0.004 C 
ATOM     16  C   UNL     1     116.794 135.397  46.268  0.00  0.00    +0.129 C 
ATOM     17  C   UNL     1     112.151 132.722  44.159  0.00  0.00    +0.039 C 
ATOM     18  C   UNL     1     116.022 138.123  47.713  0.00  0.00    +0.164 C 
ATOM     19  C   UNL     1     115.900 139.567  47.181  0.00  0.00    +0.086 C 
ATOM     20  C   UNL     1     117.262 135.148  44.848  0.00  0.00    +0.308 C 
ATOM     21  C   UNL     1     116.359 139.778  45.694  0.00  0.00    +0.132 C 
ATOM     22  C   UNL     1     116.642 140.574  48.082  0.00  0.00    +0.018 C 
ATOM     23  C   UNL     1     116.248 138.476  44.900  0.00  0.00    +0.032 C 
ATOM     24  C   UNL     1     118.956 137.092  44.317  0.00  0.00    +0.176 C 
ATOM     25  C   UNL     1     116.728 138.205  43.494  0.00  0.00    +0.006 C 
ATOM     26  C   UNL     1     118.231 138.078  43.367  0.00  0.00    +0.045 C 
ENDROOT
BRANCH  24  27
ATOM     27  C   UNL     1     119.400 137.699  45.652  0.00  0.00    +0.041 C 
ATOM     28  C   UNL     1     120.605 138.610  45.482  0.00  0.00    +0.007 C 
ENDBRANCH  24  27
BRANCH  10  29
ATOM     29  O   UNL     1     110.306 136.965  44.161  0.00  0.00    -0.345 OA
BRANCH  29  31
ATOM     30  O   UNL     1     108.301 137.571  43.255  0.00  0.00    -0.343 OA
ATOM     31  C   UNL     1     109.661 137.950  43.392  0.00  0.00    +0.282 C 
ATOM     32  C   UNL     1     110.416 138.456  42.146  0.00  0.00    +0.205 C 
ATOM     33  C   UNL     1     109.946 137.730  40.882  0.00  0.00    +0.179 C 
ATOM     34  C   UNL     1     107.917 136.773  42.147  0.00  0.00    +0.150 C 
ATOM     35  C   UNL     1     108.432 137.385  40.833  0.00  0.00    +0.177 C 
ATOM     36  C   UNL     1     108.105 135.274  42.358  0.00  0.00    +0.041 C 
BRANCH  32  37
ATOM     37  O   UNL     1     110.633 139.879  42.026  0.00  0.00    -0.372 OA
ATOM     38  C   UNL     1     109.814 140.810  42.707  0.00  0.00    +0.194 C 
ENDBRANCH  32  37
BRANCH  33  39
ATOM     39  O   UNL     1     110.425 138.371  39.694  0.00  0.00    -0.386 OA
ATOM     40  H   UNL     1     110.394 139.335  39.852  0.00  0.00    +0.210 HD
ENDBRANCH  33  39
BRANCH  35  41
ATOM     41  O   UNL     1     107.665 138.531  40.400  0.00  0.00    -0.375 OA
ATOM     42  C   UNL     1     106.477 138.313  39.647  0.00  0.00    +0.194 C 
ENDBRANCH  35  41
ENDBRANCH  29  31
ENDBRANCH  10  29
BRANCH  21  43
ATOM     43  O   UNL     1     115.616 140.919  45.267  0.00  0.00    -0.347 OA
BRANCH  43  45
ATOM     44  O   UNL     1     115.413 142.756  43.905  0.00  0.00    -0.347 OA
ATOM     45  C   UNL     1     116.289 142.065  44.785  0.00  0.00    +0.251 C 
ATOM     46  C   UNL     1     117.698 141.747  44.234  0.00  0.00    +0.063 C 
ATOM     47  C   UNL     1     117.929 141.818  42.741  0.00  0.00    +0.026 C 
ATOM     48  C   UNL     1     116.946 142.722  42.016  0.00  0.00    +0.085 C 
ATOM     49  C   UNL     1     115.516 142.404  42.533  0.00  0.00    +0.135 C 
ATOM     50  C   UNL     1     115.062 140.954  42.309  0.00  0.00    +0.039 C 
BRANCH  48  51
ATOM     51  N   UNL     1     117.390 144.145  42.044  0.00  0.00    -0.303 NA
ATOM     52  C   UNL     1     118.521 144.365  41.147  0.00  0.00    +0.105 C 
ATOM     53  C   UNL     1     116.382 145.179  41.816  0.00  0.00    +0.105 C 
ENDBRANCH  48  51
ENDBRANCH  43  45
ENDBRANCH  21  43
TORSDOF 9
ENDMDL
MODEL 13
REMARK VINA RESULT:      -7.1     83.693     87.316
REMARK  Name = 
REMARK  18 active torsions:
REMARK  status: ('A' for Active; 'I' for Inactive)
REMARK    1  A    between atoms: O_1  and  C_18
REMARK    2  A    between atoms: O_1  and  C_27
REMARK    3  A    between atoms: O_5  and  C_30
REMARK    4  A    between atoms: O_5  and  C_44
REMARK    5  A    between atoms: O_6  and  C_31
REMARK    6  A    between atoms: O_6  and  C_41
REMARK    7  A    between atoms: O_8  and  C_32
REMARK    8  A    between atoms: O_9  and  C_35
REMARK    9  A    between atoms: O_9  and  C_49
REMARK   10  A    between atoms: N_11  and  C_46
REMARK   11  A    between atoms: N_11  and  C_51
REMARK   12  A    between atoms: N_11  and  C_52
REMARK   13  A    between atoms: C_20  and  C_25
REMARK   14  A    between atoms: C_28  and  C_33
REMARK   15  A    between atoms: C_34  and  C_40
REMARK   16  A    between atoms: C_37  and  C_42
REMARK   17  A    between atoms: C_42  and  C_48
REMARK   18  A    between atoms: C_47  and  C_50
REMARK                            x       y       z     vdW  Elec       q    Type
REMARK                         _______ _______ _______ _____ _____    ______ ____
ROOT
ATOM      1  O   UNL     1     113.199 116.381  25.391  0.00  0.00    -0.292 OA
ATOM      2  O   UNL     1     113.752 118.986  21.399  0.00  0.00    -0.461 OA
ATOM      3  O   UNL     1     114.101 120.934  22.389  0.00  0.00    -0.251 OA
ATOM      4  C   UNL     1     116.744 120.479  26.975  0.00  0.00    +0.006 C 
ATOM      5  C   UNL     1     115.301 120.011  27.130  0.00  0.00    +0.023 C 
ATOM      6  C   UNL     1     116.894 121.972  26.572  0.00  0.00    +0.021 C 
ATOM      7  C   UNL     1     114.377 120.493  25.968  0.00  0.00    +0.027 C 
ATOM      8  C   UNL     1     117.615 120.345  28.252  0.00  0.00    +0.036 C 
ATOM      9  C   UNL     1     117.572 122.629  27.771  0.00  0.00    +0.039 C 
ATOM     10  C   UNL     1     118.583 121.525  28.100  0.00  0.00    +0.122 C 
ATOM     11  C   UNL     1     114.488 119.346  24.917  0.00  0.00    +0.040 C 
ATOM     12  C   UNL     1     115.743 122.641  25.907  0.00  0.00    -0.073 C 
ATOM     13  C   UNL     1     115.191 118.511  27.030  0.00  0.00    -0.015 C 
ATOM     14  C   UNL     1     114.667 121.909  25.519  0.00  0.00    -0.023 C 
ATOM     15  C   UNL     1     114.691 118.138  25.842  0.00  0.00    -0.004 C 
ATOM     16  C   UNL     1     113.361 119.225  23.851  0.00  0.00    +0.129 C 
ATOM     17  C   UNL     1     115.998 124.067  25.516  0.00  0.00    +0.039 C 
ATOM     18  C   UNL     1     114.378 116.707  25.506  0.00  0.00    +0.164 C 
ATOM     19  C   UNL     1     115.533 115.714  25.256  0.00  0.00    +0.086 C 
ATOM     20  C   UNL     1     113.813 119.750  22.503  0.00  0.00    +0.308 C 
ATOM     21  C   UNL     1     116.273 115.875  23.881  0.00  0.00    +0.132 C 
ATOM     22  C   UNL     1     115.074 114.250  25.410  0.00  0.00    +0.018 C 
ATOM     23  C   UNL     1     116.137 117.303  23.352  0.00  0.00    +0.032 C 
ATOM     24  C   UNL     1     114.150 117.616  20.998  0.00  0.00    +0.176 C 
ATOM     25  C   UNL     1     116.561 117.837  22.005  0.00  0.00    +0.006 C 
ATOM     26  C   UNL     1     115.677 117.396  20.858  0.00  0.00    +0.045 C 
ENDROOT
BRANCH  24  27
ATOM     27  C   UNL     1     113.395 116.458  21.658  0.00  0.00    +0.041 C 
ATOM     28  C   UNL     1     113.790 115.117  21.062  0.00  0.00    +0.007 C 
ENDBRANCH  24  27
BRANCH  10  29
ATOM     29  O   UNL     1     119.328 121.187  26.939  0.00  0.00    -0.345 OA
BRANCH  29  31
ATOM     30  O   UNL     1     120.870 120.282  25.520  0.00  0.00    -0.343 OA
ATOM     31  C   UNL     1     120.523 120.447  26.885  0.00  0.00    +0.282 C 
ATOM     32  C   UNL     1     120.621 119.227  27.824  0.00  0.00    +0.205 C 
ATOM     33  C   UNL     1     120.254 117.933  27.091  0.00  0.00    +0.179 C 
ATOM     34  C   UNL     1     120.395 119.143  24.821  0.00  0.00    +0.150 C 
ATOM     35  C   UNL     1     120.705 117.857  25.606  0.00  0.00    +0.177 C 
ATOM     36  C   UNL     1     118.994 119.303  24.238  0.00  0.00    +0.041 C 
BRANCH  32  37
ATOM     37  O   UNL     1     121.752 119.159  28.719  0.00  0.00    -0.372 OA
ATOM     38  C   UNL     1     121.815 119.952  29.889  0.00  0.00    +0.194 C 
ENDBRANCH  32  37
BRANCH  33  39
ATOM     39  O   UNL     1     120.604 116.775  27.856  0.00  0.00    -0.386 OA
ATOM     40  H   UNL     1     119.771 116.327  28.104  0.00  0.00    +0.210 HD
ENDBRANCH  33  39
BRANCH  35  41
ATOM     41  O   UNL     1     122.091 117.456  25.517  0.00  0.00    -0.375 OA
ATOM     42  C   UNL     1     122.755 117.568  24.264  0.00  0.00    +0.194 C 
ENDBRANCH  35  41
ENDBRANCH  29  31
ENDBRANCH  10  29
BRANCH  21  43
ATOM     43  O   UNL     1     117.576 115.348  24.131  0.00  0.00    -0.347 OA
BRANCH  43  45
ATOM     44  O   UNL     1     117.979 113.664  22.623  0.00  0.00    -0.347 OA
ATOM     45  C   UNL     1     118.400 114.952  23.053  0.00  0.00    +0.251 C 
ATOM     46  C   UNL     1     119.907 115.109  23.360  0.00  0.00    +0.063 C 
ATOM     47  C   UNL     1     120.741 113.864  23.569  0.00  0.00    +0.026 C 
ATOM     48  C   UNL     1     120.160 112.626  22.908  0.00  0.00    +0.085 C 
ATOM     49  C   UNL     1     118.642 112.565  23.231  0.00  0.00    +0.135 C 
ATOM     50  C   UNL     1     118.308 112.490  24.728  0.00  0.00    +0.039 C 
BRANCH  48  51
ATOM     51  N   UNL     1     120.567 112.529  21.477  0.00  0.00    -0.303 NA
ATOM     52  C   UNL     1     122.020 112.563  21.335  0.00  0.00    +0.105 C 
ATOM     53  C   UNL     1     120.029 111.421  20.688  0.00  0.00    +0.105 C 
ENDBRANCH  48  51
ENDBRANCH  43  45
ENDBRANCH  21  43
TORSDOF 9
ENDMDL
MODEL 14
REMARK VINA RESULT:      -6.9     48.154     53.186
REMARK  Name = 
REMARK  18 active torsions:
REMARK  status: ('A' for Active; 'I' for Inactive)
REMARK    1  A    between atoms: O_1  and  C_18
REMARK    2  A    between atoms: O_1  and  C_27
REMARK    3  A    between atoms: O_5  and  C_30
REMARK    4  A    between atoms: O_5  and  C_44
REMARK    5  A    between atoms: O_6  and  C_31
REMARK    6  A    between atoms: O_6  and  C_41
REMARK    7  A    between atoms: O_8  and  C_32
REMARK    8  A    between atoms: O_9  and  C_35
REMARK    9  A    between atoms: O_9  and  C_49
REMARK   10  A    between atoms: N_11  and  C_46
REMARK   11  A    between atoms: N_11  and  C_51
REMARK   12  A    between atoms: N_11  and  C_52
REMARK   13  A    between atoms: C_20  and  C_25
REMARK   14  A    between atoms: C_28  and  C_33
REMARK   15  A    between atoms: C_34  and  C_40
REMARK   16  A    between atoms: C_37  and  C_42
REMARK   17  A    between atoms: C_42  and  C_48
REMARK   18  A    between atoms: C_47  and  C_50
REMARK                            x       y       z     vdW  Elec       q    Type
REMARK                         _______ _______ _______ _____ _____    ______ ____
ROOT
ATOM      1  O   UNL     1     142.705 140.994  74.522  0.00  0.00    -0.292 OA
ATOM      2  O   UNL     1     145.762 144.686  74.297  0.00  0.00    -0.461 OA
ATOM      3  O   UNL     1     147.185 143.778  72.867  0.00  0.00    -0.251 OA
ATOM      4  C   UNL     1     144.808 140.645  69.295  0.00  0.00    +0.006 C 
ATOM      5  C   UNL     1     144.863 139.969  70.660  0.00  0.00    +0.023 C 
ATOM      6  C   UNL     1     146.199 140.967  68.683  0.00  0.00    +0.021 C 
ATOM      7  C   UNL     1     145.888 140.637  71.629  0.00  0.00    +0.027 C 
ATOM      8  C   UNL     1     144.091 139.826  68.188  0.00  0.00    +0.036 C 
ATOM      9  C   UNL     1     146.287 140.088  67.439  0.00  0.00    +0.039 C 
ATOM     10  C   UNL     1     144.851 140.262  66.929  0.00  0.00    +0.122 C 
ATOM     11  C   UNL     1     145.042 141.725  72.359  0.00  0.00    +0.040 C 
ATOM     12  C   UNL     1     147.364 141.076  69.602  0.00  0.00    -0.073 C 
ATOM     13  C   UNL     1     143.563 140.124  71.409  0.00  0.00    -0.015 C 
ATOM     14  C   UNL     1     147.169 141.061  70.946  0.00  0.00    -0.023 C 
ATOM     15  C   UNL     1     143.667 141.043  72.380  0.00  0.00    -0.004 C 
ATOM     16  C   UNL     1     145.571 142.267  73.718  0.00  0.00    +0.129 C 
ATOM     17  C   UNL     1     148.655 141.434  68.925  0.00  0.00    +0.039 C 
ATOM     18  C   UNL     1     142.555 141.329  73.349  0.00  0.00    +0.164 C 
ATOM     19  C   UNL     1     141.299 142.083  72.864  0.00  0.00    +0.086 C 
ATOM     20  C   UNL     1     146.188 143.644  73.563  0.00  0.00    +0.308 C 
ATOM     21  C   UNL     1     141.488 143.623  72.626  0.00  0.00    +0.132 C 
ATOM     22  C   UNL     1     140.099 141.865  73.808  0.00  0.00    +0.018 C 
ATOM     23  C   UNL     1     142.950 143.953  72.325  0.00  0.00    +0.032 C 
ATOM     24  C   UNL     1     144.467 145.308  74.660  0.00  0.00    +0.176 C 
ATOM     25  C   UNL     1     143.584 145.317  72.191  0.00  0.00    +0.006 C 
ATOM     26  C   UNL     1     143.755 146.052  73.503  0.00  0.00    +0.045 C 
ENDROOT
BRANCH  24  27
ATOM     27  C   UNL     1     143.538 144.488  75.561  0.00  0.00    +0.041 C 
ATOM     28  C   UNL     1     142.237 145.222  75.843  0.00  0.00    +0.007 C 
ENDBRANCH  24  27
BRANCH  10  29
ATOM     29  O   UNL     1     144.538 141.643  66.823  0.00  0.00    -0.345 OA
BRANCH  29  31
ATOM     30  O   UNL     1     144.347 143.679  65.809  0.00  0.00    -0.343 OA
ATOM     31  C   UNL     1     144.006 142.307  65.703  0.00  0.00    +0.282 C 
ATOM     32  C   UNL     1     142.564 141.933  65.301  0.00  0.00    +0.205 C 
ATOM     33  C   UNL     1     141.554 142.933  65.874  0.00  0.00    +0.179 C 
ATOM     34  C   UNL     1     143.458 144.561  66.475  0.00  0.00    +0.150 C 
ATOM     35  C   UNL     1     142.030 144.411  65.921  0.00  0.00    +0.177 C 
ATOM     36  C   UNL     1     143.634 144.606  67.989  0.00  0.00    +0.041 C 
BRANCH  32  37
ATOM     37  O   UNL     1     142.338 141.499  63.943  0.00  0.00    -0.372 OA
ATOM     38  C   UNL     1     143.188 140.556  63.319  0.00  0.00    +0.194 C 
ENDBRANCH  32  37
BRANCH  33  39
ATOM     39  O   UNL     1     140.257 142.767  65.290  0.00  0.00    -0.386 OA
ATOM     40  H   UNL     1     140.352 142.141  64.545  0.00  0.00    +0.210 HD
ENDBRANCH  33  39
BRANCH  35  41
ATOM     41  O   UNL     1     141.850 145.042  64.633  0.00  0.00    -0.375 OA
ATOM     42  C   UNL     1     142.416 146.330  64.419  0.00  0.00    +0.194 C 
ENDBRANCH  35  41
ENDBRANCH  29  31
ENDBRANCH  10  29
BRANCH  21  43
ATOM     43  O   UNL     1     140.490 143.943  71.657  0.00  0.00    -0.347 OA
BRANCH  43  45
ATOM     44  O   UNL     1     138.703 145.105  70.802  0.00  0.00    -0.347 OA
ATOM     45  C   UNL     1     139.437 144.826  71.988  0.00  0.00    +0.251 C 
ATOM     46  C   UNL     1     139.913 146.053  72.798  0.00  0.00    +0.063 C 
ATOM     47  C   UNL     1     139.930 147.408  72.126  0.00  0.00    +0.026 C 
ATOM     48  C   UNL     1     138.968 147.518  70.955  0.00  0.00    +0.085 C 
ATOM     49  C   UNL     1     139.123 146.248  70.073  0.00  0.00    +0.135 C 
ATOM     50  C   UNL     1     140.531 146.038  69.496  0.00  0.00    +0.039 C 
BRANCH  48  51
ATOM     51  N   UNL     1     137.594 147.880  71.409  0.00  0.00    -0.303 NA
ATOM     52  C   UNL     1     137.575 149.197  72.040  0.00  0.00    +0.105 C 
ATOM     53  C   UNL     1     136.509 147.793  70.434  0.00  0.00    +0.105 C 
ENDBRANCH  48  51
ENDBRANCH  43  45
ENDBRANCH  21  43
TORSDOF 9
ENDMDL
MODEL 15
REMARK VINA RESULT:      -6.9     50.562     53.510
REMARK  Name = 
REMARK  18 active torsions:
REMARK  status: ('A' for Active; 'I' for Inactive)
REMARK    1  A    between atoms: O_1  and  C_18
REMARK    2  A    between atoms: O_1  and  C_27
REMARK    3  A    between atoms: O_5  and  C_30
REMARK    4  A    between atoms: O_5  and  C_44
REMARK    5  A    between atoms: O_6  and  C_31
REMARK    6  A    between atoms: O_6  and  C_41
REMARK    7  A    between atoms: O_8  and  C_32
REMARK    8  A    between atoms: O_9  and  C_35
REMARK    9  A    between atoms: O_9  and  C_49
REMARK   10  A    between atoms: N_11  and  C_46
REMARK   11  A    between atoms: N_11  and  C_51
REMARK   12  A    between atoms: N_11  and  C_52
REMARK   13  A    between atoms: C_20  and  C_25
REMARK   14  A    between atoms: C_28  and  C_33
REMARK   15  A    between atoms: C_34  and  C_40
REMARK   16  A    between atoms: C_37  and  C_42
REMARK   17  A    between atoms: C_42  and  C_48
REMARK   18  A    between atoms: C_47  and  C_50
REMARK                            x       y       z     vdW  Elec       q    Type
REMARK                         _______ _______ _______ _____ _____    ______ ____
ROOT
ATOM      1  O   UNL     1      91.764 108.968  64.083  0.00  0.00    -0.292 OA
ATOM      2  O   UNL     1      96.202 110.360  65.269  0.00  0.00    -0.461 OA
ATOM      3  O   UNL     1      95.674 111.373  67.164  0.00  0.00    -0.251 OA
ATOM      4  C   UNL     1      91.668 109.006  69.728  0.00  0.00    +0.006 C 
ATOM      5  C   UNL     1      91.159 109.772  68.512  0.00  0.00    +0.023 C 
ATOM      6  C   UNL     1      92.362 109.893  70.799  0.00  0.00    +0.021 C 
ATOM      7  C   UNL     1      92.194 110.805  67.966  0.00  0.00    +0.027 C 
ATOM      8  C   UNL     1      90.576 108.241  70.523  0.00  0.00    +0.036 C 
ATOM      9  C   UNL     1      91.456 109.799  72.023  0.00  0.00    +0.039 C 
ATOM     10  C   UNL     1      91.125 108.304  71.954  0.00  0.00    +0.122 C 
ATOM     11  C   UNL     1      93.016 109.981  66.927  0.00  0.00    +0.040 C 
ATOM     12  C   UNL     1      92.909 111.210  70.375  0.00  0.00    -0.073 C 
ATOM     13  C   UNL     1      90.956 108.861  67.327  0.00  0.00    -0.015 C 
ATOM     14  C   UNL     1      92.943 111.536  69.057  0.00  0.00    -0.023 C 
ATOM     15  C   UNL     1      91.938 109.009  66.425  0.00  0.00    -0.004 C 
ATOM     16  C   UNL     1      93.807 110.764  65.840  0.00  0.00    +0.129 C 
ATOM     17  C   UNL     1      93.599 111.974  71.468  0.00  0.00    +0.039 C 
ATOM     18  C   UNL     1      91.937 108.300  65.101  0.00  0.00    +0.164 C 
ATOM     19  C   UNL     1      92.213 106.783  65.050  0.00  0.00    +0.086 C 
ATOM     20  C   UNL     1      95.290 110.800  66.153  0.00  0.00    +0.308 C 
ATOM     21  C   UNL     1      93.709 106.362  65.274  0.00  0.00    +0.132 C 
ATOM     22  C   UNL     1      91.706 106.151  63.738  0.00  0.00    +0.018 C 
ATOM     23  C   UNL     1      94.458 107.422  66.083  0.00  0.00    +0.032 C 
ATOM     24  C   UNL     1      96.410 109.161  64.423  0.00  0.00    +0.176 C 
ATOM     25  C   UNL     1      95.936 107.485  66.384  0.00  0.00    +0.006 C 
ATOM     26  C   UNL     1      96.793 107.876  65.199  0.00  0.00    +0.045 C 
ENDROOT
BRANCH  24  27
ATOM     27  C   UNL     1      95.416 108.945  63.277  0.00  0.00    +0.041 C 
ATOM     28  C   UNL     1      95.753 107.703  62.468  0.00  0.00    +0.007 C 
ENDBRANCH  24  27
BRANCH  10  29
ATOM     29  O   UNL     1      92.323 107.545  71.876  0.00  0.00    -0.345 OA
BRANCH  29  31
ATOM     30  O   UNL     1      93.803 105.808  71.839  0.00  0.00    -0.343 OA
ATOM     31  C   UNL     1      92.491 106.190  72.215  0.00  0.00    +0.282 C 
ATOM     32  C   UNL     1      91.321 105.245  71.876  0.00  0.00    +0.205 C 
ATOM     33  C   UNL     1      91.558 104.528  70.543  0.00  0.00    +0.179 C 
ATOM     34  C   UNL     1      94.022 105.279  70.541  0.00  0.00    +0.150 C 
ATOM     35  C   UNL     1      93.033 104.137  70.248  0.00  0.00    +0.177 C 
ATOM     36  C   UNL     1      94.235 106.333  69.460  0.00  0.00    +0.041 C 
BRANCH  32  37
ATOM     37  O   UNL     1      90.772 104.446  72.946  0.00  0.00    -0.372 OA
ATOM     38  C   UNL     1      89.582 104.823  73.612  0.00  0.00    +0.194 C 
ENDBRANCH  32  37
BRANCH  33  39
ATOM     39  O   UNL     1      90.632 103.453  70.349  0.00  0.00    -0.386 OA
ATOM     40  H   UNL     1      91.118 102.619  70.502  0.00  0.00    +0.210 HD
ENDBRANCH  33  39
BRANCH  35  41
ATOM     41  O   UNL     1      93.374 102.902  70.917  0.00  0.00    -0.375 OA
ATOM     42  C   UNL     1      94.746 102.546  71.035  0.00  0.00    +0.194 C 
ENDBRANCH  35  41
ENDBRANCH  29  31
ENDBRANCH  10  29
BRANCH  21  43
ATOM     43  O   UNL     1      93.617 105.034  65.787  0.00  0.00    -0.347 OA
BRANCH  43  45
ATOM     44  O   UNL     1      94.310 102.847  65.883  0.00  0.00    -0.347 OA
ATOM     45  C   UNL     1      94.060 103.940  65.009  0.00  0.00    +0.251 C 
ATOM     46  C   UNL     1      95.205 104.315  64.042  0.00  0.00    +0.063 C 
ATOM     47  C   UNL     1      96.599 103.801  64.329  0.00  0.00    +0.026 C 
ATOM     48  C   UNL     1      96.619 102.543  65.180  0.00  0.00    +0.085 C 
ATOM     49  C   UNL     1      95.640 102.741  66.370  0.00  0.00    +0.135 C 
ATOM     50  C   UNL     1      95.979 103.925  67.288  0.00  0.00    +0.039 C 
BRANCH  48  51
ATOM     51  N   UNL     1      96.455 101.317  64.347  0.00  0.00    -0.303 NA
ATOM     52  C   UNL     1      97.256 101.393  63.129  0.00  0.00    +0.105 C 
ATOM     53  C   UNL     1      96.671 100.022  64.990  0.00  0.00    +0.105 C 
ENDBRANCH  48  51
ENDBRANCH  43  45
ENDBRANCH  21  43
TORSDOF 9
ENDMDL
MODEL 16
REMARK VINA RESULT:      -6.9     66.686     70.122
REMARK  Name = 
REMARK  18 active torsions:
REMARK  status: ('A' for Active; 'I' for Inactive)
REMARK    1  A    between atoms: O_1  and  C_18
REMARK    2  A    between atoms: O_1  and  C_27
REMARK    3  A    between atoms: O_5  and  C_30
REMARK    4  A    between atoms: O_5  and  C_44
REMARK    5  A    between atoms: O_6  and  C_31
REMARK    6  A    between atoms: O_6  and  C_41
REMARK    7  A    between atoms: O_8  and  C_32
REMARK    8  A    between atoms: O_9  and  C_35
REMARK    9  A    between atoms: O_9  and  C_49
REMARK   10  A    between atoms: N_11  and  C_46
REMARK   11  A    between atoms: N_11  and  C_51
REMARK   12  A    between atoms: N_11  and  C_52
REMARK   13  A    between atoms: C_20  and  C_25
REMARK   14  A    between atoms: C_28  and  C_33
REMARK   15  A    between atoms: C_34  and  C_40
REMARK   16  A    between atoms: C_37  and  C_42
REMARK   17  A    between atoms: C_42  and  C_48
REMARK   18  A    between atoms: C_47  and  C_50
REMARK                            x       y       z     vdW  Elec       q    Type
REMARK                         _______ _______ _______ _____ _____    ______ ____
ROOT
ATOM      1  O   UNL     1     116.930 137.759  48.430  0.00  0.00    -0.292 OA
ATOM      2  O   UNL     1     118.371 135.903  44.245  0.00  0.00    -0.461 OA
ATOM      3  O   UNL     1     116.722 134.447  44.008  0.00  0.00    -0.251 OA
ATOM      4  C   UNL     1     112.102 136.225  45.938  0.00  0.00    +0.006 C 
ATOM      5  C   UNL     1     113.049 135.834  47.067  0.00  0.00    +0.023 C 
ATOM      6  C   UNL     1     111.718 135.055  44.991  0.00  0.00    +0.021 C 
ATOM      7  C   UNL     1     114.233 134.938  46.586  0.00  0.00    +0.027 C 
ATOM      8  C   UNL     1     110.736 136.799  46.400  0.00  0.00    +0.036 C 
ATOM      9  C   UNL     1     110.219 134.860  45.206  0.00  0.00    +0.039 C 
ATOM     10  C   UNL     1     109.801 136.334  45.276  0.00  0.00    +0.122 C 
ATOM     11  C   UNL     1     115.339 135.970  46.206  0.00  0.00    +0.040 C 
ATOM     12  C   UNL     1     112.621 133.874  44.927  0.00  0.00    -0.073 C 
ATOM     13  C   UNL     1     113.763 137.036  47.633  0.00  0.00    -0.015 C 
ATOM     14  C   UNL     1     113.825 133.909  45.554  0.00  0.00    -0.023 C 
ATOM     15  C   UNL     1     115.036 137.088  47.214  0.00  0.00    -0.004 C 
ATOM     16  C   UNL     1     116.810 135.470  46.142  0.00  0.00    +0.129 C 
ATOM     17  C   UNL     1     112.190 132.818  43.953  0.00  0.00    +0.039 C 
ATOM     18  C   UNL     1     116.010 138.123  47.702  0.00  0.00    +0.164 C 
ATOM     19  C   UNL     1     115.865 139.586  47.229  0.00  0.00    +0.086 C 
ATOM     20  C   UNL     1     117.272 135.285  44.710  0.00  0.00    +0.308 C 
ATOM     21  C   UNL     1     116.311 139.863  45.750  0.00  0.00    +0.132 C 
ATOM     22  C   UNL     1     116.599 140.566  48.167  0.00  0.00    +0.018 C 
ATOM     23  C   UNL     1     116.212 138.594  44.904  0.00  0.00    +0.032 C 
ATOM     24  C   UNL     1     118.936 137.273  44.249  0.00  0.00    +0.176 C 
ATOM     25  C   UNL     1     116.688 138.387  43.486  0.00  0.00    +0.006 C 
ATOM     26  C   UNL     1     118.191 138.287  43.345  0.00  0.00    +0.045 C 
ENDROOT
BRANCH  24  27
ATOM     27  C   UNL     1     119.380 137.831  45.605  0.00  0.00    +0.041 C 
ATOM     28  C   UNL     1     120.742 138.499  45.519  0.00  0.00    +0.007 C 
ENDBRANCH  24  27
BRANCH  10  29
ATOM     29  O   UNL     1     110.288 137.031  44.139  0.00  0.00    -0.345 OA
BRANCH  29  31
ATOM     30  O   UNL     1     110.738 138.920  42.939  0.00  0.00    -0.343 OA
ATOM     31  C   UNL     1     109.699 138.144  43.512  0.00  0.00    +0.282 C 
ATOM     32  C   UNL     1     108.585 138.867  44.297  0.00  0.00    +0.205 C 
ATOM     33  C   UNL     1     109.136 140.083  45.047  0.00  0.00    +0.179 C 
ATOM     34  C   UNL     1     111.334 139.951  43.710  0.00  0.00    +0.150 C 
ATOM     35  C   UNL     1     110.256 140.870  44.311  0.00  0.00    +0.177 C 
ATOM     36  C   UNL     1     112.461 139.480  44.623  0.00  0.00    +0.041 C 
BRANCH  32  37
ATOM     37  O   UNL     1     107.309 139.039  43.643  0.00  0.00    -0.372 OA
ATOM     38  C   UNL     1     107.222 139.446  42.291  0.00  0.00    +0.194 C 
ENDBRANCH  32  37
BRANCH  33  39
ATOM     39  O   UNL     1     108.084 140.918  45.546  0.00  0.00    -0.386 OA
ATOM     40  H   UNL     1     107.457 141.065  44.811  0.00  0.00    +0.210 HD
ENDBRANCH  33  39
BRANCH  35  41
ATOM     41  O   UNL     1     109.685 141.784  43.348  0.00  0.00    -0.375 OA
ATOM     42  C   UNL     1     109.832 143.182  43.565  0.00  0.00    +0.194 C 
ENDBRANCH  35  41
ENDBRANCH  29  31
ENDBRANCH  10  29
BRANCH  21  43
ATOM     43  O   UNL     1     115.550 141.010  45.374  0.00  0.00    -0.347 OA
BRANCH  43  45
ATOM     44  O   UNL     1     115.297 142.901  44.097  0.00  0.00    -0.347 OA
ATOM     45  C   UNL     1     116.203 142.178  44.919  0.00  0.00    +0.251 C 
ATOM     46  C   UNL     1     117.594 141.890  44.310  0.00  0.00    +0.063 C 
ATOM     47  C   UNL     1     117.777 142.024  42.815  0.00  0.00    +0.026 C 
ATOM     48  C   UNL     1     116.768 142.952  42.160  0.00  0.00    +0.085 C 
ATOM     49  C   UNL     1     115.356 142.607  42.709  0.00  0.00    +0.135 C 
ATOM     50  C   UNL     1     114.900 141.166  42.439  0.00  0.00    +0.039 C 
BRANCH  48  51
ATOM     51  N   UNL     1     117.208 144.375  42.232  0.00  0.00    -0.303 NA
ATOM     52  C   UNL     1     118.307 144.638  41.308  0.00  0.00    +0.105 C 
ATOM     53  C   UNL     1     116.190 145.413  42.083  0.00  0.00    +0.105 C 
ENDBRANCH  48  51
ENDBRANCH  43  45
ENDBRANCH  21  43
TORSDOF 9
ENDMDL
MODEL 17
REMARK VINA RESULT:      -6.9     65.753     70.356
REMARK  Name = 
REMARK  18 active torsions:
REMARK  status: ('A' for Active; 'I' for Inactive)
REMARK    1  A    between atoms: O_1  and  C_18
REMARK    2  A    between atoms: O_1  and  C_27
REMARK    3  A    between atoms: O_5  and  C_30
REMARK    4  A    between atoms: O_5  and  C_44
REMARK    5  A    between atoms: O_6  and  C_31
REMARK    6  A    between atoms: O_6  and  C_41
REMARK    7  A    between atoms: O_8  and  C_32
REMARK    8  A    between atoms: O_9  and  C_35
REMARK    9  A    between atoms: O_9  and  C_49
REMARK   10  A    between atoms: N_11  and  C_46
REMARK   11  A    between atoms: N_11  and  C_51
REMARK   12  A    between atoms: N_11  and  C_52
REMARK   13  A    between atoms: C_20  and  C_25
REMARK   14  A    between atoms: C_28  and  C_33
REMARK   15  A    between atoms: C_34  and  C_40
REMARK   16  A    between atoms: C_37  and  C_42
REMARK   17  A    between atoms: C_42  and  C_48
REMARK   18  A    between atoms: C_47  and  C_50
REMARK                            x       y       z     vdW  Elec       q    Type
REMARK                         _______ _______ _______ _____ _____    ______ ____
ROOT
ATOM      1  O   UNL     1     113.966 134.289  44.166  0.00  0.00    -0.292 OA
ATOM      2  O   UNL     1     115.218 135.927  48.499  0.00  0.00    -0.461 OA
ATOM      3  O   UNL     1     117.274 136.551  47.973  0.00  0.00    -0.251 OA
ATOM      4  C   UNL     1     117.670 138.388  43.003  0.00  0.00    +0.006 C 
ATOM      5  C   UNL     1     117.519 136.871  43.012  0.00  0.00    +0.023 C 
ATOM      6  C   UNL     1     118.942 138.910  43.726  0.00  0.00    +0.021 C 
ATOM      7  C   UNL     1     117.809 136.239  44.409  0.00  0.00    +0.027 C 
ATOM      8  C   UNL     1     117.749 139.028  41.591  0.00  0.00    +0.036 C 
ATOM      9  C   UNL     1     119.780 139.545  42.621  0.00  0.00    +0.039 C 
ATOM     10  C   UNL     1     118.655 140.240  41.845  0.00  0.00    +0.122 C 
ATOM     11  C   UNL     1     116.413 136.240  45.105  0.00  0.00    +0.040 C 
ATOM     12  C   UNL     1     119.586 138.031  44.739  0.00  0.00    -0.073 C 
ATOM     13  C   UNL     1     116.092 136.453  42.758  0.00  0.00    -0.015 C 
ATOM     14  C   UNL     1     118.971 136.885  45.130  0.00  0.00    -0.023 C 
ATOM     15  C   UNL     1     115.495 136.050  43.889  0.00  0.00    -0.004 C 
ATOM     16  C   UNL     1     116.195 135.268  46.300  0.00  0.00    +0.129 C 
ATOM     17  C   UNL     1     120.781 138.639  45.415  0.00  0.00    +0.039 C 
ATOM     18  C   UNL     1     114.103 135.484  43.915  0.00  0.00    +0.164 C 
ATOM     19  C   UNL     1     112.897 136.421  43.691  0.00  0.00    +0.086 C 
ATOM     20  C   UNL     1     116.238 136.002  47.627  0.00  0.00    +0.308 C 
ATOM     21  C   UNL     1     112.538 137.357  44.898  0.00  0.00    +0.132 C 
ATOM     22  C   UNL     1     111.635 135.639  43.270  0.00  0.00    +0.018 C 
ATOM     23  C   UNL     1     113.763 137.606  45.779  0.00  0.00    +0.032 C 
ATOM     24  C   UNL     1     113.744 136.070  48.468  0.00  0.00    +0.176 C 
ATOM     25  C   UNL     1     113.818 138.313  47.111  0.00  0.00    +0.006 C 
ATOM     26  C   UNL     1     113.234 137.518  48.259  0.00  0.00    +0.045 C 
ENDROOT
BRANCH  24  27
ATOM     27  C   UNL     1     112.963 135.000  47.697  0.00  0.00    +0.041 C 
ATOM     28  C   UNL     1     111.464 135.234  47.775  0.00  0.00    +0.007 C 
ENDBRANCH  24  27
BRANCH  10  29
ATOM     29  O   UNL     1     117.884 141.044  42.725  0.00  0.00    -0.345 OA
BRANCH  29  31
ATOM     30  O   UNL     1     118.033 142.683  44.306  0.00  0.00    -0.343 OA
ATOM     31  C   UNL     1     117.987 142.435  42.911  0.00  0.00    +0.282 C 
ATOM     32  C   UNL     1     117.074 143.316  42.034  0.00  0.00    +0.205 C 
ATOM     33  C   UNL     1     115.799 143.712  42.786  0.00  0.00    +0.179 C 
ATOM     34  C   UNL     1     116.821 142.904  45.008  0.00  0.00    +0.150 C 
ATOM     35  C   UNL     1     115.977 143.982  44.306  0.00  0.00    +0.177 C 
ATOM     36  C   UNL     1     116.116 141.629  45.462  0.00  0.00    +0.041 C 
BRANCH  32  37
ATOM     37  O   UNL     1     117.700 144.349  41.243  0.00  0.00    -0.372 OA
ATOM     38  C   UNL     1     118.829 144.077  40.435  0.00  0.00    +0.194 C 
ENDBRANCH  32  37
BRANCH  33  39
ATOM     39  O   UNL     1     115.082 144.745  42.101  0.00  0.00    -0.386 OA
ATOM     40  H   UNL     1     115.510 145.594  42.326  0.00  0.00    +0.210 HD
ENDBRANCH  33  39
BRANCH  35  41
ATOM     41  O   UNL     1     116.466 145.323  44.529  0.00  0.00    -0.375 OA
ATOM     42  C   UNL     1     115.813 146.136  45.497  0.00  0.00    +0.194 C 
ENDBRANCH  35  41
ENDBRANCH  29  31
ENDBRANCH  10  29
BRANCH  21  43
ATOM     43  O   UNL     1     111.885 138.469  44.285  0.00  0.00    -0.347 OA
BRANCH  43  45
ATOM     44  O   UNL     1     110.315 140.143  44.270  0.00  0.00    -0.347 OA
ATOM     45  C   UNL     1     110.553 138.789  44.631  0.00  0.00    +0.251 C 
ATOM     46  C   UNL     1     110.199 138.399  46.084  0.00  0.00    +0.063 C 
ATOM     47  C   UNL     1     110.012 139.497  47.108  0.00  0.00    +0.026 C 
ATOM     48  C   UNL     1     109.633 140.837  46.500  0.00  0.00    +0.085 C 
ATOM     49  C   UNL     1     110.565 141.104  45.285  0.00  0.00    +0.135 C 
ATOM     50  C   UNL     1     112.061 141.158  45.626  0.00  0.00    +0.039 C 
BRANCH  48  51
ATOM     51  N   UNL     1     108.162 140.940  46.278  0.00  0.00    -0.303 NA
ATOM     52  C   UNL     1     107.419 140.615  47.492  0.00  0.00    +0.105 C 
ATOM     53  C   UNL     1     107.643 142.184  45.710  0.00  0.00    +0.105 C 
ENDBRANCH  48  51
ENDBRANCH  43  45
ENDBRANCH  21  43
TORSDOF 9
ENDMDL
MODEL 18
REMARK VINA RESULT:      -6.8     43.699     46.896
REMARK  Name = 
REMARK  18 active torsions:
REMARK  status: ('A' for Active; 'I' for Inactive)
REMARK    1  A    between atoms: O_1  and  C_18
REMARK    2  A    between atoms: O_1  and  C_27
REMARK    3  A    between atoms: O_5  and  C_30
REMARK    4  A    between atoms: O_5  and  C_44
REMARK    5  A    between atoms: O_6  and  C_31
REMARK    6  A    between atoms: O_6  and  C_41
REMARK    7  A    between atoms: O_8  and  C_32
REMARK    8  A    between atoms: O_9  and  C_35
REMARK    9  A    between atoms: O_9  and  C_49
REMARK   10  A    between atoms: N_11  and  C_46
REMARK   11  A    between atoms: N_11  and  C_51
REMARK   12  A    between atoms: N_11  and  C_52
REMARK   13  A    between atoms: C_20  and  C_25
REMARK   14  A    between atoms: C_28  and  C_33
REMARK   15  A    between atoms: C_34  and  C_40
REMARK   16  A    between atoms: C_37  and  C_42
REMARK   17  A    between atoms: C_42  and  C_48
REMARK   18  A    between atoms: C_47  and  C_50
REMARK                            x       y       z     vdW  Elec       q    Type
REMARK                         _______ _______ _______ _____ _____    ______ ____
ROOT
ATOM      1  O   UNL     1     124.305 114.325  63.304  0.00  0.00    -0.292 OA
ATOM      2  O   UNL     1     122.026 110.682  61.168  0.00  0.00    -0.461 OA
ATOM      3  O   UNL     1     122.937 109.054  62.357  0.00  0.00    -0.251 OA
ATOM      4  C   UNL     1     123.891 110.454  67.392  0.00  0.00    +0.006 C 
ATOM      5  C   UNL     1     124.897 111.102  66.447  0.00  0.00    +0.023 C 
ATOM      6  C   UNL     1     123.922 108.901  67.395  0.00  0.00    +0.021 C 
ATOM      7  C   UNL     1     124.935 110.425  65.041  0.00  0.00    +0.027 C 
ATOM      8  C   UNL     1     124.058 110.836  68.887  0.00  0.00    +0.036 C 
ATOM      9  C   UNL     1     124.388 108.527  68.799  0.00  0.00    +0.039 C 
ATOM     10  C   UNL     1     123.584 109.561  69.594  0.00  0.00    +0.122 C 
ATOM     11  C   UNL     1     123.870 111.221  64.226  0.00  0.00    +0.040 C 
ATOM     12  C   UNL     1     124.494 108.206  66.209  0.00  0.00    -0.073 C 
ATOM     13  C   UNL     1     124.510 112.520  66.112  0.00  0.00    -0.015 C 
ATOM     14  C   UNL     1     124.817 108.918  65.099  0.00  0.00    -0.023 C 
ATOM     15  C   UNL     1     124.000 112.606  64.875  0.00  0.00    -0.004 C 
ATOM     16  C   UNL     1     123.954 111.169  62.674  0.00  0.00    +0.129 C 
ATOM     17  C   UNL     1     124.440 106.708  66.285  0.00  0.00    +0.039 C 
ATOM     18  C   UNL     1     123.624 113.916  64.241  0.00  0.00    +0.164 C 
ATOM     19  C   UNL     1     122.371 114.669  64.737  0.00  0.00    +0.086 C 
ATOM     20  C   UNL     1     122.900 110.248  62.091  0.00  0.00    +0.308 C 
ATOM     21  C   UNL     1     120.997 114.058  64.289  0.00  0.00    +0.132 C 
ATOM     22  C   UNL     1     122.408 116.161  64.347  0.00  0.00    +0.018 C 
ATOM     23  C   UNL     1     121.134 112.563  63.997  0.00  0.00    +0.032 C 
ATOM     24  C   UNL     1     121.116 111.837  60.986  0.00  0.00    +0.176 C 
ATOM     25  C   UNL     1     120.103 111.638  63.397  0.00  0.00    +0.006 C 
ATOM     26  C   UNL     1     119.876 111.842  61.914  0.00  0.00    +0.045 C 
ENDROOT
BRANCH  24  27
ATOM     27  C   UNL     1     121.773 113.208  60.790  0.00  0.00    +0.041 C 
ATOM     28  C   UNL     1     120.739 114.301  60.574  0.00  0.00    +0.007 C 
ENDBRANCH  24  27
BRANCH  10  29
ATOM     29  O   UNL     1     122.210 109.484  69.240  0.00  0.00    -0.345 OA
BRANCH  29  31
ATOM     30  O   UNL     1     120.051 110.219  69.310  0.00  0.00    -0.343 OA
ATOM     31  C   UNL     1     121.105 109.676  70.088  0.00  0.00    +0.282 C 
ATOM     32  C   UNL     1     121.397 110.295  71.470  0.00  0.00    +0.205 C 
ATOM     33  C   UNL     1     121.149 111.807  71.463  0.00  0.00    +0.179 C 
ATOM     34  C   UNL     1     119.929 111.628  69.201  0.00  0.00    +0.150 C 
ATOM     35  C   UNL     1     119.952 112.283  70.594  0.00  0.00    +0.177 C 
ATOM     36  C   UNL     1     120.789 112.250  68.105  0.00  0.00    +0.041 C 
BRANCH  32  37
ATOM     37  O   UNL     1     120.941 109.575  72.636  0.00  0.00    -0.372 OA
ATOM     38  C   UNL     1     119.644 109.013  72.696  0.00  0.00    +0.194 C 
ENDBRANCH  32  37
BRANCH  33  39
ATOM     39  O   UNL     1     121.143 112.347  72.790  0.00  0.00    -0.386 OA
ATOM     40  H   UNL     1     121.829 113.043  72.822  0.00  0.00    +0.210 HD
ENDBRANCH  33  39
BRANCH  35  41
ATOM     41  O   UNL     1     118.709 112.132  71.315  0.00  0.00    -0.375 OA
ATOM     42  C   UNL     1     117.879 113.274  71.490  0.00  0.00    +0.194 C 
ENDBRANCH  35  41
ENDBRANCH  29  31
ENDBRANCH  10  29
BRANCH  21  43
ATOM     43  O   UNL     1     120.086 114.487  65.301  0.00  0.00    -0.347 OA
BRANCH  43  45
ATOM     44  O   UNL     1     117.962 115.019  65.990  0.00  0.00    -0.347 OA
ATOM     45  C   UNL     1     118.914 115.193  64.949  0.00  0.00    +0.251 C 
ATOM     46  C   UNL     1     118.426 114.871  63.518  0.00  0.00    +0.063 C 
ATOM     47  C   UNL     1     117.167 114.049  63.346  0.00  0.00    +0.026 C 
ATOM     48  C   UNL     1     116.231 114.114  64.540  0.00  0.00    +0.085 C 
ATOM     49  C   UNL     1     117.072 113.924  65.833  0.00  0.00    +0.135 C 
ATOM     50  C   UNL     1     117.830 112.591  65.912  0.00  0.00    +0.039 C 
BRANCH  48  51
ATOM     51  N   UNL     1     115.335 115.304  64.467  0.00  0.00    -0.303 NA
ATOM     52  C   UNL     1     114.691 115.404  63.161  0.00  0.00    +0.105 C 
ATOM     53  C   UNL     1     114.329 115.466  65.517  0.00  0.00    +0.105 C 
ENDBRANCH  48  51
ENDBRANCH  43  45
ENDBRANCH  21  43
TORSDOF 9
ENDMDL
MODEL 19
REMARK VINA RESULT:      -6.8     66.637     70.169
REMARK  Name = 
REMARK  18 active torsions:
REMARK  status: ('A' for Active; 'I' for Inactive)
REMARK    1  A    between atoms: O_1  and  C_18
REMARK    2  A    between atoms: O_1  and  C_27
REMARK    3  A    between atoms: O_5  and  C_30
REMARK    4  A    between atoms: O_5  and  C_44
REMARK    5  A    between atoms: O_6  and  C_31
REMARK    6  A    between atoms: O_6  and  C_41
REMARK    7  A    between atoms: O_8  and  C_32
REMARK    8  A    between atoms: O_9  and  C_35
REMARK    9  A    between atoms: O_9  and  C_49
REMARK   10  A    between atoms: N_11  and  C_46
REMARK   11  A    between atoms: N_11  and  C_51
REMARK   12  A    between atoms: N_11  and  C_52
REMARK   13  A    between atoms: C_20  and  C_25
REMARK   14  A    between atoms: C_28  and  C_33
REMARK   15  A    between atoms: C_34  and  C_40
REMARK   16  A    between atoms: C_37  and  C_42
REMARK   17  A    between atoms: C_42  and  C_48
REMARK   18  A    between atoms: C_47  and  C_50
REMARK                            x       y       z     vdW  Elec       q    Type
REMARK                         _______ _______ _______ _____ _____    ______ ____
ROOT
ATOM      1  O   UNL     1     117.685 138.604  47.505  0.00  0.00    -0.292 OA
ATOM      2  O   UNL     1     118.021 136.059  43.450  0.00  0.00    -0.461 OA
ATOM      3  O   UNL     1     116.582 134.472  44.002  0.00  0.00    -0.251 OA
ATOM      4  C   UNL     1     112.572 136.266  46.990  0.00  0.00    +0.006 C 
ATOM      5  C   UNL     1     113.859 136.176  47.803  0.00  0.00    +0.023 C 
ATOM      6  C   UNL     1     112.075 134.907  46.425  0.00  0.00    +0.021 C 
ATOM      7  C   UNL     1     114.948 135.289  47.123  0.00  0.00    +0.027 C 
ATOM      8  C   UNL     1     111.347 136.823  47.764  0.00  0.00    +0.036 C 
ATOM      9  C   UNL     1     110.750 134.653  47.140  0.00  0.00    +0.039 C 
ATOM     10  C   UNL     1     110.185 136.078  47.095  0.00  0.00    +0.122 C 
ATOM     11  C   UNL     1     115.742 136.300  46.241  0.00  0.00    +0.040 C 
ATOM     12  C   UNL     1     113.063 133.804  46.272  0.00  0.00    -0.073 C 
ATOM     13  C   UNL     1     114.547 137.514  47.902  0.00  0.00    -0.015 C 
ATOM     14  C   UNL     1     114.384 134.049  46.464  0.00  0.00    -0.023 C 
ATOM     15  C   UNL     1     115.616 137.572  47.092  0.00  0.00    -0.004 C 
ATOM     16  C   UNL     1     117.178 135.903  45.793  0.00  0.00    +0.129 C 
ATOM     17  C   UNL     1     112.498 132.547  45.678  0.00  0.00    +0.039 C 
ATOM     18  C   UNL     1     116.548 138.750  47.062  0.00  0.00    +0.164 C 
ATOM     19  C   UNL     1     116.078 140.075  46.425  0.00  0.00    +0.086 C 
ATOM     20  C   UNL     1     117.205 135.470  44.340  0.00  0.00    +0.308 C 
ATOM     21  C   UNL     1     116.016 140.084  44.856  0.00  0.00    +0.132 C 
ATOM     22  C   UNL     1     116.927 141.272  46.900  0.00  0.00    +0.018 C 
ATOM     23  C   UNL     1     115.832 138.667  44.310  0.00  0.00    +0.032 C 
ATOM     24  C   UNL     1     118.378 137.439  43.044  0.00  0.00    +0.176 C 
ATOM     25  C   UNL     1     115.879 138.216  42.870  0.00  0.00    +0.006 C 
ATOM     26  C   UNL     1     117.270 138.197  42.272  0.00  0.00    +0.045 C 
ENDROOT
BRANCH  24  27
ATOM     27  C   UNL     1     119.135 138.286  44.073  0.00  0.00    +0.041 C 
ATOM     28  C   UNL     1     119.460 139.668  43.532  0.00  0.00    +0.007 C 
ENDBRANCH  24  27
BRANCH  10  29
ATOM     29  O   UNL     1     110.210 136.567  45.761  0.00  0.00    -0.345 OA
BRANCH  29  31
ATOM     30  O   UNL     1     109.379 135.498  43.924  0.00  0.00    -0.343 OA
ATOM     31  C   UNL     1     109.150 136.559  44.837  0.00  0.00    +0.282 C 
ATOM     32  C   UNL     1     108.711 137.929  44.281  0.00  0.00    +0.205 C 
ATOM     33  C   UNL     1     109.365 138.211  42.924  0.00  0.00    +0.179 C 
ATOM     34  C   UNL     1     110.116 135.754  42.740  0.00  0.00    +0.150 C 
ATOM     35  C   UNL     1     109.544 136.976  41.999  0.00  0.00    +0.177 C 
ATOM     36  C   UNL     1     111.629 135.667  42.910  0.00  0.00    +0.041 C 
BRANCH  32  37
ATOM     37  O   UNL     1     107.318 138.289  44.409  0.00  0.00    -0.372 OA
ATOM     38  C   UNL     1     106.291 137.329  44.250  0.00  0.00    +0.194 C 
ENDBRANCH  32  37
BRANCH  33  39
ATOM     39  O   UNL     1     108.761 139.333  42.270  0.00  0.00    -0.386 OA
ATOM     40  H   UNL     1     108.563 139.999  42.958  0.00  0.00    +0.210 HD
ENDBRANCH  33  39
BRANCH  35  41
ATOM     41  O   UNL     1     108.316 136.690  41.292  0.00  0.00    -0.375 OA
ATOM     42  C   UNL     1     108.239 135.503  40.512  0.00  0.00    +0.194 C 
ENDBRANCH  35  41
ENDBRANCH  29  31
ENDBRANCH  10  29
BRANCH  21  43
ATOM     43  O   UNL     1     115.034 141.076  44.559  0.00  0.00    -0.347 OA
BRANCH  43  45
ATOM     44  O   UNL     1     116.108 143.042  44.055  0.00  0.00    -0.347 OA
ATOM     45  C   UNL     1     115.268 142.021  43.534  0.00  0.00    +0.251 C 
ATOM     46  C   UNL     1     113.967 142.493  42.846  0.00  0.00    +0.063 C 
ATOM     47  C   UNL     1     113.479 143.902  43.100  0.00  0.00    +0.026 C 
ATOM     48  C   UNL     1     114.579 144.859  43.527  0.00  0.00    +0.085 C 
ATOM     49  C   UNL     1     115.439 144.162  44.617  0.00  0.00    +0.135 C 
ATOM     50  C   UNL     1     114.665 143.755  45.880  0.00  0.00    +0.039 C 
BRANCH  48  51
ATOM     51  N   UNL     1     115.290 145.434  42.349  0.00  0.00    -0.303 NA
ATOM     52  C   UNL     1     114.348 145.884  41.329  0.00  0.00    +0.105 C 
ATOM     53  C   UNL     1     116.278 146.484  42.594  0.00  0.00    +0.105 C 
ENDBRANCH  48  51
ENDBRANCH  43  45
ENDBRANCH  21  43
TORSDOF 9
ENDMDL
MODEL 20
REMARK VINA RESULT:      -6.8     44.414     48.635
REMARK  Name = 
REMARK  18 active torsions:
REMARK  status: ('A' for Active; 'I' for Inactive)
REMARK    1  A    between atoms: O_1  and  C_18
REMARK    2  A    between atoms: O_1  and  C_27
REMARK    3  A    between atoms: O_5  and  C_30
REMARK    4  A    between atoms: O_5  and  C_44
REMARK    5  A    between atoms: O_6  and  C_31
REMARK    6  A    between atoms: O_6  and  C_41
REMARK    7  A    between atoms: O_8  and  C_32
REMARK    8  A    between atoms: O_9  and  C_35
REMARK    9  A    between atoms: O_9  and  C_49
REMARK   10  A    between atoms: N_11  and  C_46
REMARK   11  A    between atoms: N_11  and  C_51
REMARK   12  A    between atoms: N_11  and  C_52
REMARK   13  A    between atoms: C_20  and  C_25
REMARK   14  A    between atoms: C_28  and  C_33
REMARK   15  A    between atoms: C_34  and  C_40
REMARK   16  A    between atoms: C_37  and  C_42
REMARK   17  A    between atoms: C_42  and  C_48
REMARK   18  A    between atoms: C_47  and  C_50
REMARK                            x       y       z     vdW  Elec       q    Type
REMARK                         _______ _______ _______ _____ _____    ______ ____
ROOT
ATOM      1  O   UNL     1     115.848 127.418  59.537  0.00  0.00    -0.292 OA
ATOM      2  O   UNL     1     116.393 123.783  62.621  0.00  0.00    -0.461 OA
ATOM      3  O   UNL     1     117.985 124.703  63.851  0.00  0.00    -0.251 OA
ATOM      4  C   UNL     1     117.461 129.970  64.307  0.00  0.00    +0.006 C 
ATOM      5  C   UNL     1     117.962 129.591  62.918  0.00  0.00    +0.023 C 
ATOM      6  C   UNL     1     118.412 129.560  65.465  0.00  0.00    +0.021 C 
ATOM      7  C   UNL     1     118.521 128.136  62.848  0.00  0.00    +0.027 C 
ATOM      8  C   UNL     1     117.233 131.489  64.528  0.00  0.00    +0.036 C 
ATOM      9  C   UNL     1     118.882 130.882  66.065  0.00  0.00    +0.039 C 
ATOM     10  C   UNL     1     117.552 131.643  66.020  0.00  0.00    +0.122 C 
ATOM     11  C   UNL     1     117.270 127.283  62.476  0.00  0.00    +0.040 C 
ATOM     12  C   UNL     1     119.389 128.464  65.219  0.00  0.00    -0.073 C 
ATOM     13  C   UNL     1     116.837 129.553  61.914  0.00  0.00    -0.015 C 
ATOM     14  C   UNL     1     119.321 127.742  64.071  0.00  0.00    -0.023 C 
ATOM     15  C   UNL     1     116.489 128.291  61.621  0.00  0.00    -0.004 C 
ATOM     16  C   UNL     1     117.507 125.878  61.852  0.00  0.00    +0.129 C 
ATOM     17  C   UNL     1     120.232 128.109  66.409  0.00  0.00    +0.039 C 
ATOM     18  C   UNL     1     115.465 127.954  60.574  0.00  0.00    +0.164 C 
ATOM     19  C   UNL     1     113.972 128.229  60.855  0.00  0.00    +0.086 C 
ATOM     20  C   UNL     1     117.267 124.774  62.863  0.00  0.00    +0.308 C 
ATOM     21  C   UNL     1     113.280 127.234  61.852  0.00  0.00    +0.132 C 
ATOM     22  C   UNL     1     113.147 128.290  59.554  0.00  0.00    +0.018 C 
ATOM     23  C   UNL     1     114.307 126.603  62.793  0.00  0.00    +0.032 C 
ATOM     24  C   UNL     1     114.994 123.653  62.149  0.00  0.00    +0.176 C 
ATOM     25  C   UNL     1     114.090 125.489  63.789  0.00  0.00    +0.006 C 
ATOM     26  C   UNL     1     113.920 124.122  63.161  0.00  0.00    +0.045 C 
ENDROOT
BRANCH  24  27
ATOM     27  C   UNL     1     114.718 124.047  60.694  0.00  0.00    +0.041 C 
ATOM     28  C   UNL     1     113.234 124.000  60.372  0.00  0.00    +0.007 C 
ENDBRANCH  24  27
BRANCH  10  29
ATOM     29  O   UNL     1     116.534 130.879  66.651  0.00  0.00    -0.345 OA
BRANCH  29  31
ATOM     30  O   UNL     1     116.638 129.377  68.366  0.00  0.00    -0.343 OA
ATOM     31  C   UNL     1     116.328 130.720  68.033  0.00  0.00    +0.282 C 
ATOM     32  C   UNL     1     115.045 131.348  68.615  0.00  0.00    +0.205 C 
ATOM     33  C   UNL     1     113.925 130.309  68.733  0.00  0.00    +0.179 C 
ATOM     34  C   UNL     1     115.609 128.402  68.327  0.00  0.00    +0.150 C 
ATOM     35  C   UNL     1     114.382 128.876  69.125  0.00  0.00    +0.177 C 
ATOM     36  C   UNL     1     115.371 127.794  66.948  0.00  0.00    +0.041 C 
BRANCH  32  37
ATOM     37  O   UNL     1     115.189 132.264  69.721  0.00  0.00    -0.372 OA
ATOM     38  C   UNL     1     115.861 131.888  70.908  0.00  0.00    +0.194 C 
ENDBRANCH  32  37
BRANCH  33  39
ATOM     39  O   UNL     1     112.832 130.797  69.519  0.00  0.00    -0.386 OA
ATOM     40  H   UNL     1     112.224 130.046  69.668  0.00  0.00    +0.210 HD
ENDBRANCH  33  39
BRANCH  35  41
ATOM     41  O   UNL     1     114.560 128.775  70.556  0.00  0.00    -0.375 OA
ATOM     42  C   UNL     1     113.704 127.907  71.290  0.00  0.00    +0.194 C 
ENDBRANCH  35  41
ENDBRANCH  29  31
ENDBRANCH  10  29
BRANCH  21  43
ATOM     43  O   UNL     1     112.208 127.997  62.406  0.00  0.00    -0.347 OA
BRANCH  43  45
ATOM     44  O   UNL     1     111.270 128.426  64.457  0.00  0.00    -0.347 OA
ATOM     45  C   UNL     1     112.387 128.696  63.620  0.00  0.00    +0.251 C 
ATOM     46  C   UNL     1     112.735 130.187  63.410  0.00  0.00    +0.063 C 
ATOM     47  C   UNL     1     111.695 131.233  63.748  0.00  0.00    +0.026 C 
ATOM     48  C   UNL     1     110.669 130.762  64.765  0.00  0.00    +0.085 C 
ATOM     49  C   UNL     1     110.190 129.342  64.356  0.00  0.00    +0.135 C 
ATOM     50  C   UNL     1     109.536 129.262  62.970  0.00  0.00    +0.039 C 
BRANCH  48  51
ATOM     51  N   UNL     1     111.157 130.952  66.161  0.00  0.00    -0.303 NA
ATOM     52  C   UNL     1     111.874 132.216  66.305  0.00  0.00    +0.105 C 
ATOM     53  C   UNL     1     110.188 130.818  67.247  0.00  0.00    +0.105 C 
ENDBRANCH  48  51
ENDBRANCH  43  45
ENDBRANCH  21  43
TORSDOF 9
ENDMDL
