MODEL 1
REMARK VINA RESULT:      -8.6      0.000      0.000
REMARK  Name = 
REMARK  18 active torsions:
REMARK  status: ('A' for Active; 'I' for Inactive)
REMARK    1  A    between atoms: O_1  and  C_18
REMARK    2  A    between atoms: O_1  and  C_27
REMARK    3  A    between atoms: O_5  and  C_30
REMARK    4  A    between atoms: O_5  and  C_44
REMARK    5  A    between atoms: O_6  and  C_31
REMARK    6  A    between atoms: O_6  and  C_41
REMARK    7  A    between atoms: O_8  and  C_32
REMARK    8  A    between atoms: O_9  and  C_35
REMARK    9  A    between atoms: O_9  and  C_49
REMARK   10  A    between atoms: N_11  and  C_46
REMARK   11  A    between atoms: N_11  and  C_51
REMARK   12  A    between atoms: N_11  and  C_52
REMARK   13  A    between atoms: C_20  and  C_25
REMARK   14  A    between atoms: C_28  and  C_33
REMARK   15  A    between atoms: C_34  and  C_40
REMARK   16  A    between atoms: C_37  and  C_42
REMARK   17  A    between atoms: C_42  and  C_48
REMARK   18  A    between atoms: C_47  and  C_50
REMARK                            x       y       z     vdW  Elec       q    Type
REMARK                         _______ _______ _______ _____ _____    ______ ____
ROOT
ATOM      1  O   UNL     1     117.810 121.432 108.095  0.00  0.00    -0.292 OA
ATOM      2  O   UNL     1     116.436 121.191 112.687  0.00  0.00    -0.461 OA
ATOM      3  O   UNL     1     117.055 119.099 113.049  0.00  0.00    -0.251 OA
ATOM      4  C   UNL     1     121.432 117.742 110.361  0.00  0.00    +0.006 C 
ATOM      5  C   UNL     1     120.227 117.827 109.431  0.00  0.00    +0.023 C 
ATOM      6  C   UNL     1     121.302 116.674 111.482  0.00  0.00    +0.021 C 
ATOM      7  C   UNL     1     118.866 117.812 110.195  0.00  0.00    +0.027 C 
ATOM      8  C   UNL     1     122.774 117.393 109.663  0.00  0.00    +0.036 C 
ATOM      9  C   UNL     1     122.387 115.648 111.165  0.00  0.00    +0.039 C 
ATOM     10  C   UNL     1     123.508 116.612 110.760  0.00  0.00    +0.122 C 
ATOM     11  C   UNL     1     118.586 119.322 110.467  0.00  0.00    +0.040 C 
ATOM     12  C   UNL     1     119.938 116.221 111.868  0.00  0.00    -0.073 C 
ATOM     13  C   UNL     1     120.177 119.149 108.708  0.00  0.00    -0.015 C 
ATOM     14  C   UNL     1     118.847 116.856 111.367  0.00  0.00    -0.023 C 
ATOM     15  C   UNL     1     119.240 119.955 109.230  0.00  0.00    -0.004 C 
ATOM     16  C   UNL     1     117.120 119.746 110.772  0.00  0.00    +0.129 C 
ATOM     17  C   UNL     1     119.912 115.222 112.988  0.00  0.00    +0.039 C 
ATOM     18  C   UNL     1     118.903 121.296 108.642  0.00  0.00    +0.164 C 
ATOM     19  C   UNL     1     119.898 122.466 108.795  0.00  0.00    +0.086 C 
ATOM     20  C   UNL     1     116.917 120.015 112.250  0.00  0.00    +0.308 C 
ATOM     21  C   UNL     1     119.965 123.110 110.225  0.00  0.00    +0.132 C 
ATOM     22  C   UNL     1     119.641 123.576 107.756  0.00  0.00    +0.018 C 
ATOM     23  C   UNL     1     119.527 122.109 111.295  0.00  0.00    +0.032 C 
ATOM     24  C   UNL     1     116.707 122.631 112.463  0.00  0.00    +0.176 C 
ATOM     25  C   UNL     1     119.299 122.366 112.765  0.00  0.00    +0.006 C 
ATOM     26  C   UNL     1     118.037 123.145 113.069  0.00  0.00    +0.045 C 
ENDROOT
BRANCH  24  27
ATOM     27  C   UNL     1     116.381 123.186 111.072  0.00  0.00    +0.041 C 
ATOM     28  C   UNL     1     116.675 124.674 110.978  0.00  0.00    +0.007 C 
ENDBRANCH  24  27
BRANCH  10  29
ATOM     29  O   UNL     1     123.702 117.585 111.777  0.00  0.00    -0.345 OA
BRANCH  29  31
ATOM     30  O   UNL     1     123.377 117.727 114.032  0.00  0.00    -0.343 OA
ATOM     31  C   UNL     1     124.320 117.393 113.026  0.00  0.00    +0.282 C 
ATOM     32  C   UNL     1     125.765 117.913 113.167  0.00  0.00    +0.205 C 
ATOM     33  C   UNL     1     125.793 119.302 113.814  0.00  0.00    +0.179 C 
ATOM     34  C   UNL     1     123.325 119.060 114.513  0.00  0.00    +0.150 C 
ATOM     35  C   UNL     1     124.728 119.545 114.919  0.00  0.00    +0.177 C 
ATOM     36  C   UNL     1     122.461 119.997 113.675  0.00  0.00    +0.041 C 
BRANCH  32  37
ATOM     37  O   UNL     1     126.773 116.979 113.608  0.00  0.00    -0.372 OA
ATOM     38  C   UNL     1     126.662 116.304 114.846  0.00  0.00    +0.194 C 
ENDBRANCH  32  37
BRANCH  33  39
ATOM     39  O   UNL     1     127.119 119.676 114.204  0.00  0.00    -0.386 OA
ATOM     40  H   UNL     1     127.466 118.962 114.775  0.00  0.00    +0.210 HD
ENDBRANCH  33  39
BRANCH  35  41
ATOM     41  O   UNL     1     125.175 119.001 116.182  0.00  0.00    -0.375 OA
ATOM     42  C   UNL     1     124.692 119.586 117.385  0.00  0.00    +0.194 C 
ENDBRANCH  35  41
ENDBRANCH  29  31
ENDBRANCH  10  29
BRANCH  21  43
ATOM     43  O   UNL     1     121.279 123.664 110.288  0.00  0.00    -0.347 OA
BRANCH  43  45
ATOM     44  O   UNL     1     122.850 123.518 111.955  0.00  0.00    -0.347 OA
ATOM     45  C   UNL     1     122.353 122.890 110.781  0.00  0.00    +0.251 C 
ATOM     46  C   UNL     1     123.399 122.553 109.694  0.00  0.00    +0.063 C 
ATOM     47  C   UNL     1     124.751 123.229 109.750  0.00  0.00    +0.026 C 
ATOM     48  C   UNL     1     125.133 123.711 111.139  0.00  0.00    +0.085 C 
ATOM     49  C   UNL     1     123.910 124.442 111.757  0.00  0.00    +0.135 C 
ATOM     50  C   UNL     1     123.425 125.663 110.962  0.00  0.00    +0.039 C 
BRANCH  48  51
ATOM     51  N   UNL     1     125.765 122.623 111.939  0.00  0.00    -0.303 NA
ATOM     52  C   UNL     1     126.710 121.854 111.135  0.00  0.00    +0.105 C 
ATOM     53  C   UNL     1     126.392 122.986 113.209  0.00  0.00    +0.105 C 
ENDBRANCH  48  51
ENDBRANCH  43  45
ENDBRANCH  21  43
TORSDOF 9
ENDMDL
MODEL 2
REMARK VINA RESULT:      -8.6      2.449      5.072
REMARK  Name = 
REMARK  18 active torsions:
REMARK  status: ('A' for Active; 'I' for Inactive)
REMARK    1  A    between atoms: O_1  and  C_18
REMARK    2  A    between atoms: O_1  and  C_27
REMARK    3  A    between atoms: O_5  and  C_30
REMARK    4  A    between atoms: O_5  and  C_44
REMARK    5  A    between atoms: O_6  and  C_31
REMARK    6  A    between atoms: O_6  and  C_41
REMARK    7  A    between atoms: O_8  and  C_32
REMARK    8  A    between atoms: O_9  and  C_35
REMARK    9  A    between atoms: O_9  and  C_49
REMARK   10  A    between atoms: N_11  and  C_46
REMARK   11  A    between atoms: N_11  and  C_51
REMARK   12  A    between atoms: N_11  and  C_52
REMARK   13  A    between atoms: C_20  and  C_25
REMARK   14  A    between atoms: C_28  and  C_33
REMARK   15  A    between atoms: C_34  and  C_40
REMARK   16  A    between atoms: C_37  and  C_42
REMARK   17  A    between atoms: C_42  and  C_48
REMARK   18  A    between atoms: C_47  and  C_50
REMARK                            x       y       z     vdW  Elec       q    Type
REMARK                         _______ _______ _______ _____ _____    ______ ____
ROOT
ATOM      1  O   UNL     1     120.254 124.481 108.082  0.00  0.00    -0.292 OA
ATOM      2  O   UNL     1     119.585 125.741 112.664  0.00  0.00    -0.461 OA
ATOM      3  O   UNL     1     117.800 124.488 113.036  0.00  0.00    -0.251 OA
ATOM      4  C   UNL     1     117.916 119.886 110.384  0.00  0.00    +0.006 C 
ATOM      5  C   UNL     1     117.612 121.048 109.444  0.00  0.00    +0.023 C 
ATOM      6  C   UNL     1     116.862 119.676 111.506  0.00  0.00    +0.021 C 
ATOM      7  C   UNL     1     117.162 122.338 110.198  0.00  0.00    +0.027 C 
ATOM      8  C   UNL     1     118.015 118.498 109.696  0.00  0.00    +0.036 C 
ATOM      9  C   UNL     1     116.238 118.318 111.199  0.00  0.00    +0.039 C 
ATOM     10  C   UNL     1     117.510 117.561 110.801  0.00  0.00    +0.122 C 
ATOM     11  C   UNL     1     118.503 123.089 110.464  0.00  0.00    +0.040 C 
ATOM     12  C   UNL     1     115.997 120.827 111.883  0.00  0.00    -0.073 C 
ATOM     13  C   UNL     1     118.849 121.513 108.718  0.00  0.00    -0.015 C 
ATOM     14  C   UNL     1     116.250 122.059 111.373  0.00  0.00    -0.023 C 
ATOM     15  C   UNL     1     119.312 122.662 109.232  0.00  0.00    -0.004 C 
ATOM     16  C   UNL     1     118.436 124.615 110.758  0.00  0.00    +0.129 C 
ATOM     17  C   UNL     1     115.042 120.540 113.005  0.00  0.00    +0.039 C 
ATOM     18  C   UNL     1     120.474 123.406 108.638  0.00  0.00    +0.164 C 
ATOM     19  C   UNL     1     121.901 122.839 108.795  0.00  0.00    +0.086 C 
ATOM     20  C   UNL     1     118.625 124.905 112.234  0.00  0.00    +0.308 C 
ATOM     21  C   UNL     1     122.533 122.993 110.224  0.00  0.00    +0.132 C 
ATOM     22  C   UNL     1     122.871 123.430 107.752  0.00  0.00    +0.018 C 
ATOM     23  C   UNL     1     121.444 123.095 111.293  0.00  0.00    +0.032 C 
ATOM     24  C   UNL     1     121.036 125.943 112.440  0.00  0.00    +0.176 C 
ATOM     25  C   UNL     1     121.614 123.406 112.761  0.00  0.00    +0.006 C 
ATOM     26  C   UNL     1     121.948 124.852 113.054  0.00  0.00    +0.045 C 
ENDROOT
BRANCH  24  27
ATOM     27  C   UNL     1     121.458 126.419 111.045  0.00  0.00    +0.041 C 
ATOM     28  C   UNL     1     122.968 126.533 110.923  0.00  0.00    +0.007 C 
ENDBRANCH  24  27
BRANCH  10  29
ATOM     29  O   UNL     1     118.494 117.697 111.817  0.00  0.00    -0.345 OA
BRANCH  29  31
ATOM     30  O   UNL     1     118.541 118.019 114.075  0.00  0.00    -0.343 OA
ATOM     31  C   UNL     1     118.527 117.034 113.057  0.00  0.00    +0.282 C 
ATOM     32  C   UNL     1     119.495 115.838 113.172  0.00  0.00    +0.205 C 
ATOM     33  C   UNL     1     120.821 116.261 113.813  0.00  0.00    +0.179 C 
ATOM     34  C   UNL     1     119.787 118.501 114.552  0.00  0.00    +0.150 C 
ATOM     35  C   UNL     1     120.710 117.331 114.934  0.00  0.00    +0.177 C 
ATOM     36  C   UNL     1     120.380 119.637 113.723  0.00  0.00    +0.041 C 
BRANCH  32  37
ATOM     37  O   UNL     1     118.949 114.573 113.602  0.00  0.00    -0.372 OA
ATOM     38  C   UNL     1     118.246 114.449 114.823  0.00  0.00    +0.194 C 
ENDBRANCH  32  37
BRANCH  33  39
ATOM     39  O   UNL     1     121.615 115.127 114.181  0.00  0.00    -0.386 OA
ATOM     40  H   UNL     1     121.965 115.296 115.078  0.00  0.00    +0.210 HD
ENDBRANCH  33  39
BRANCH  35  41
ATOM     41  O   UNL     1     120.356 116.714 116.192  0.00  0.00    -0.375 OA
ATOM     42  C   UNL     1     120.770 117.340 117.400  0.00  0.00    +0.194 C 
ENDBRANCH  35  41
ENDBRANCH  29  31
ENDBRANCH  10  29
BRANCH  21  43
ATOM     43  O   UNL     1     123.478 121.926 110.295  0.00  0.00    -0.347 OA
BRANCH  43  45
ATOM     44  O   UNL     1     123.861 120.377 111.946  0.00  0.00    -0.347 OA
ATOM     45  C   UNL     1     123.086 120.661 110.789  0.00  0.00    +0.251 C 
ATOM     46  C   UNL     1     123.067 119.569 109.696  0.00  0.00    +0.063 C 
ATOM     47  C   UNL     1     124.131 118.493 109.723  0.00  0.00    +0.026 C 
ATOM     48  C   UNL     1     124.735 118.271 111.098  0.00  0.00    +0.085 C 
ATOM     49  C   UNL     1     125.064 119.657 111.719  0.00  0.00    +0.135 C 
ATOM     50  C   UNL     1     126.058 120.501 110.908  0.00  0.00    +0.039 C 
BRANCH  48  51
ATOM     51  N   UNL     1     123.914 117.328 111.910  0.00  0.00    -0.303 NA
ATOM     52  C   UNL     1     123.520 116.160 111.128  0.00  0.00    +0.105 C 
ATOM     53  C   UNL     1     124.451 116.890 113.198  0.00  0.00    +0.105 C 
ENDBRANCH  48  51
ENDBRANCH  43  45
ENDBRANCH  21  43
TORSDOF 9
ENDMDL
MODEL 3
REMARK VINA RESULT:      -8.6      2.445      5.086
REMARK  Name = 
REMARK  18 active torsions:
REMARK  status: ('A' for Active; 'I' for Inactive)
REMARK    1  A    between atoms: O_1  and  C_18
REMARK    2  A    between atoms: O_1  and  C_27
REMARK    3  A    between atoms: O_5  and  C_30
REMARK    4  A    between atoms: O_5  and  C_44
REMARK    5  A    between atoms: O_6  and  C_31
REMARK    6  A    between atoms: O_6  and  C_41
REMARK    7  A    between atoms: O_8  and  C_32
REMARK    8  A    between atoms: O_9  and  C_35
REMARK    9  A    between atoms: O_9  and  C_49
REMARK   10  A    between atoms: N_11  and  C_46
REMARK   11  A    between atoms: N_11  and  C_51
REMARK   12  A    between atoms: N_11  and  C_52
REMARK   13  A    between atoms: C_20  and  C_25
REMARK   14  A    between atoms: C_28  and  C_33
REMARK   15  A    between atoms: C_34  and  C_40
REMARK   16  A    between atoms: C_37  and  C_42
REMARK   17  A    between atoms: C_42  and  C_48
REMARK   18  A    between atoms: C_47  and  C_50
REMARK                            x       y       z     vdW  Elec       q    Type
REMARK                         _______ _______ _______ _____ _____    ______ ____
ROOT
ATOM      1  O   UNL     1     119.967 118.056 108.057  0.00  0.00    -0.292 OA
ATOM      2  O   UNL     1     119.800 116.610 112.630  0.00  0.00    -0.461 OA
ATOM      3  O   UNL     1     121.984 116.550 112.978  0.00  0.00    -0.251 OA
ATOM      4  C   UNL     1     124.605 120.337 110.328  0.00  0.00    +0.006 C 
ATOM      5  C   UNL     1     124.148 119.230 109.385  0.00  0.00    +0.023 C 
ATOM      6  C   UNL     1     125.588 119.869 111.437  0.00  0.00    +0.021 C 
ATOM      7  C   UNL     1     123.748 117.919 110.133  0.00  0.00    +0.027 C 
ATOM      8  C   UNL     1     125.345 121.516 109.642  0.00  0.00    +0.036 C 
ATOM      9  C   UNL     1     126.895 120.591 111.123  0.00  0.00    +0.039 C 
ATOM     10  C   UNL     1     126.320 121.959 110.741  0.00  0.00    +0.122 C 
ATOM     11  C   UNL     1     122.227 118.112 110.416  0.00  0.00    +0.040 C 
ATOM     12  C   UNL     1     125.602 118.427 111.803  0.00  0.00    -0.073 C 
ATOM     13  C   UNL     1     122.870 119.598 108.674  0.00  0.00    -0.015 C 
ATOM     14  C   UNL     1     124.660 117.591 111.296  0.00  0.00    -0.023 C 
ATOM     15  C   UNL     1     121.819 118.947 109.194  0.00  0.00    -0.004 C 
ATOM     16  C   UNL     1     121.375 116.844 110.709  0.00  0.00    +0.129 C 
ATOM     17  C   UNL     1     126.550 118.080 112.913  0.00  0.00    +0.039 C 
ATOM     18  C   UNL     1     120.436 119.046 108.615  0.00  0.00    +0.164 C 
ATOM     19  C   UNL     1     119.629 120.350 108.791  0.00  0.00    +0.086 C 
ATOM     20  C   UNL     1     121.065 116.712 112.187  0.00  0.00    +0.308 C 
ATOM     21  C   UNL     1     119.045 120.592 110.227  0.00  0.00    +0.132 C 
ATOM     22  C   UNL     1     118.488 120.461 107.760  0.00  0.00    +0.018 C 
ATOM     23  C   UNL     1     119.869 119.853 111.283  0.00  0.00    +0.032 C 
ATOM     24  C   UNL     1     118.512 117.313 112.423  0.00  0.00    +0.176 C 
ATOM     25  C   UNL     1     119.563 119.693 112.752  0.00  0.00    +0.006 C 
ATOM     26  C   UNL     1     118.436 118.728 113.049  0.00  0.00    +0.045 C 
ENDROOT
BRANCH  24  27
ATOM     27  C   UNL     1     117.876 117.193 111.034  0.00  0.00    +0.041 C 
ATOM     28  C   UNL     1     116.562 117.952 110.950  0.00  0.00    +0.007 C 
ENDBRANCH  24  27
BRANCH  10  29
ATOM     29  O   UNL     1     125.460 122.428 111.769  0.00  0.00    -0.345 OA
BRANCH  29  31
ATOM     30  O   UNL     1     125.247 122.112 114.019  0.00  0.00    -0.343 OA
ATOM     31  C   UNL     1     125.839 122.933 113.026  0.00  0.00    +0.282 C 
ATOM     32  C   UNL     1     125.778 124.464 113.200  0.00  0.00    +0.205 C 
ATOM     33  C   UNL     1     124.467 124.893 113.868  0.00  0.00    +0.179 C 
ATOM     34  C   UNL     1     123.964 122.452 114.519  0.00  0.00    +0.150 C 
ATOM     35  C   UNL     1     123.926 123.926 114.958  0.00  0.00    +0.177 C 
ATOM     36  C   UNL     1     122.803 121.927 113.680  0.00  0.00    +0.041 C 
BRANCH  32  37
ATOM     37  O   UNL     1     126.975 125.136 113.646  0.00  0.00    -0.372 OA
ATOM     38  C   UNL     1     127.559 124.848 114.902  0.00  0.00    +0.194 C 
ENDBRANCH  32  37
BRANCH  33  39
ATOM     39  O   UNL     1     124.511 126.261 114.288  0.00  0.00    -0.386 OA
ATOM     40  H   UNL     1     125.000 126.290 115.134  0.00  0.00    +0.210 HD
ENDBRANCH  33  39
BRANCH  35  41
ATOM     41  O   UNL     1     124.589 124.162 116.220  0.00  0.00    -0.375 OA
ATOM     42  C   UNL     1     123.822 124.100 117.416  0.00  0.00    +0.194 C 
ENDBRANCH  35  41
ENDBRANCH  29  31
ENDBRANCH  10  29
BRANCH  21  43
ATOM     43  O   UNL     1     118.921 122.011 110.311  0.00  0.00    -0.347 OA
BRANCH  43  45
ATOM     44  O   UNL     1     119.520 123.471 111.979  0.00  0.00    -0.347 OA
ATOM     45  C   UNL     1     119.986 122.787 110.823  0.00  0.00    +0.251 C 
ATOM     46  C   UNL     1     120.666 123.660 109.744  0.00  0.00    +0.063 C 
ATOM     47  C   UNL     1     120.455 125.158 109.778  0.00  0.00    +0.026 C 
ATOM     48  C   UNL     1     120.087 125.687 111.154  0.00  0.00    +0.085 C 
ATOM     49  C   UNL     1     118.988 124.768 111.754  0.00  0.00    +0.135 C 
ATOM     50  C   UNL     1     117.696 124.690 110.928  0.00  0.00    +0.039 C 
BRANCH  48  51
ATOM     51  N   UNL     1     121.299 125.948 111.982  0.00  0.00    -0.303 NA
ATOM     52  C   UNL     1     122.356 126.573 111.192  0.00  0.00    +0.105 C 
ATOM     53  C   UNL     1     121.126 126.685 113.232  0.00  0.00    +0.105 C 
ENDBRANCH  48  51
ENDBRANCH  43  45
ENDBRANCH  21  43
TORSDOF 9
ENDMDL
MODEL 4
REMARK VINA RESULT:      -8.0      2.365      5.682
REMARK  Name = 
REMARK  18 active torsions:
REMARK  status: ('A' for Active; 'I' for Inactive)
REMARK    1  A    between atoms: O_1  and  C_18
REMARK    2  A    between atoms: O_1  and  C_27
REMARK    3  A    between atoms: O_5  and  C_30
REMARK    4  A    between atoms: O_5  and  C_44
REMARK    5  A    between atoms: O_6  and  C_31
REMARK    6  A    between atoms: O_6  and  C_41
REMARK    7  A    between atoms: O_8  and  C_32
REMARK    8  A    between atoms: O_9  and  C_35
REMARK    9  A    between atoms: O_9  and  C_49
REMARK   10  A    between atoms: N_11  and  C_46
REMARK   11  A    between atoms: N_11  and  C_51
REMARK   12  A    between atoms: N_11  and  C_52
REMARK   13  A    between atoms: C_20  and  C_25
REMARK   14  A    between atoms: C_28  and  C_33
REMARK   15  A    between atoms: C_34  and  C_40
REMARK   16  A    between atoms: C_37  and  C_42
REMARK   17  A    between atoms: C_42  and  C_48
REMARK   18  A    between atoms: C_47  and  C_50
REMARK                            x       y       z     vdW  Elec       q    Type
REMARK                         _______ _______ _______ _____ _____    ______ ____
ROOT
ATOM      1  O   UNL     1     119.937 117.048 108.799  0.00  0.00    -0.292 OA
ATOM      2  O   UNL     1     118.937 116.348 113.440  0.00  0.00    -0.461 OA
ATOM      3  O   UNL     1     121.005 115.930 114.106  0.00  0.00    -0.251 OA
ATOM      4  C   UNL     1     124.644 118.723 111.426  0.00  0.00    +0.006 C 
ATOM      5  C   UNL     1     124.083 117.596 110.567  0.00  0.00    +0.023 C 
ATOM      6  C   UNL     1     125.372 118.248 112.714  0.00  0.00    +0.021 C 
ATOM      7  C   UNL     1     123.336 116.509 111.402  0.00  0.00    +0.027 C 
ATOM      8  C   UNL     1     125.687 119.628 110.717  0.00  0.00    +0.036 C 
ATOM      9  C   UNL     1     126.828 118.655 112.508  0.00  0.00    +0.039 C 
ATOM     10  C   UNL     1     126.596 120.036 111.884  0.00  0.00    +0.122 C 
ATOM     11  C   UNL     1     121.865 117.024 111.437  0.00  0.00    +0.040 C 
ATOM     12  C   UNL     1     125.044 116.898 113.249  0.00  0.00    -0.073 C 
ATOM     13  C   UNL     1     123.002 118.089 109.640  0.00  0.00    -0.015 C 
ATOM     14  C   UNL     1     124.017 116.189 112.716  0.00  0.00    -0.023 C 
ATOM     15  C   UNL     1     121.785 117.732 110.076  0.00  0.00    -0.004 C 
ATOM     16  C   UNL     1     120.741 115.996 111.753  0.00  0.00    +0.129 C 
ATOM     17  C   UNL     1     125.764 116.546 114.519  0.00  0.00    +0.039 C 
ATOM     18  C   UNL     1     120.531 118.003 109.295  0.00  0.00    +0.164 C 
ATOM     19  C   UNL     1     119.995 119.447 109.194  0.00  0.00    +0.086 C 
ATOM     20  C   UNL     1     120.239 116.145 113.176  0.00  0.00    +0.308 C 
ATOM     21  C   UNL     1     119.308 120.003 110.491  0.00  0.00    +0.132 C 
ATOM     22  C   UNL     1     119.031 119.618 108.002  0.00  0.00    +0.018 C 
ATOM     23  C   UNL     1     119.831 119.286 111.736  0.00  0.00    +0.032 C 
ATOM     24  C   UNL     1     117.855 117.243 112.966  0.00  0.00    +0.176 C 
ATOM     25  C   UNL     1     119.328 119.405 113.154  0.00  0.00    +0.006 C 
ATOM     26  C   UNL     1     117.999 118.724 113.399  0.00  0.00    +0.045 C 
ENDROOT
BRANCH  24  27
ATOM     27  C   UNL     1     117.376 117.042 111.524  0.00  0.00    +0.041 C 
ATOM     28  C   UNL     1     116.353 118.090 111.121  0.00  0.00    +0.007 C 
ENDBRANCH  24  27
BRANCH  10  29
ATOM     29  O   UNL     1     125.736 120.805 112.712  0.00  0.00    -0.345 OA
BRANCH  29  31
ATOM     30  O   UNL     1     124.991 122.623 113.874  0.00  0.00    -0.343 OA
ATOM     31  C   UNL     1     125.480 122.185 112.617  0.00  0.00    +0.282 C 
ATOM     32  C   UNL     1     124.765 122.667 111.339  0.00  0.00    +0.205 C 
ATOM     33  C   UNL     1     123.257 122.808 111.568  0.00  0.00    +0.179 C 
ATOM     34  C   UNL     1     123.593 122.607 114.114  0.00  0.00    +0.150 C 
ATOM     35  C   UNL     1     122.840 123.317 112.976  0.00  0.00    +0.177 C 
ATOM     36  C   UNL     1     123.054 121.264 114.597  0.00  0.00    +0.041 C 
BRANCH  32  37
ATOM     37  O   UNL     1     125.398 123.713 110.570  0.00  0.00    -0.372 OA
ATOM     38  C   UNL     1     125.622 123.574 109.180  0.00  0.00    +0.194 C 
ENDBRANCH  32  37
BRANCH  33  39
ATOM     39  O   UNL     1     122.623 123.512 110.494  0.00  0.00    -0.386 OA
ATOM     40  H   UNL     1     123.023 124.403 110.454  0.00  0.00    +0.210 HD
ENDBRANCH  33  39
BRANCH  35  41
ATOM     41  O   UNL     1     122.936 124.758 113.042  0.00  0.00    -0.375 OA
ATOM     42  C   UNL     1     121.797 125.498 113.468  0.00  0.00    +0.194 C 
ENDBRANCH  35  41
ENDBRANCH  29  31
ENDBRANCH  10  29
BRANCH  21  43
ATOM     43  O   UNL     1     119.471 121.417 110.383  0.00  0.00    -0.347 OA
BRANCH  43  45
ATOM     44  O   UNL     1     117.577 121.879 111.596  0.00  0.00    -0.347 OA
ATOM     45  C   UNL     1     118.924 122.271 111.368  0.00  0.00    +0.251 C 
ATOM     46  C   UNL     1     119.155 123.768 111.060  0.00  0.00    +0.063 C 
ATOM     47  C   UNL     1     117.975 124.616 110.640  0.00  0.00    +0.026 C 
ATOM     48  C   UNL     1     116.637 124.068 111.106  0.00  0.00    +0.085 C 
ATOM     49  C   UNL     1     116.601 122.544 110.808  0.00  0.00    +0.135 C 
ATOM     50  C   UNL     1     116.758 122.178 109.325  0.00  0.00    +0.039 C 
BRANCH  48  51
ATOM     51  N   UNL     1     116.320 124.508 112.495  0.00  0.00    -0.303 NA
ATOM     52  C   UNL     1     115.839 123.395 113.307  0.00  0.00    +0.105 C 
ATOM     53  C   UNL     1     117.352 125.236 113.232  0.00  0.00    +0.105 C 
ENDBRANCH  48  51
ENDBRANCH  43  45
ENDBRANCH  21  43
TORSDOF 9
ENDMDL
MODEL 5
REMARK VINA RESULT:      -7.9     42.362     46.450
REMARK  Name = 
REMARK  18 active torsions:
REMARK  status: ('A' for Active; 'I' for Inactive)
REMARK    1  A    between atoms: O_1  and  C_18
REMARK    2  A    between atoms: O_1  and  C_27
REMARK    3  A    between atoms: O_5  and  C_30
REMARK    4  A    between atoms: O_5  and  C_44
REMARK    5  A    between atoms: O_6  and  C_31
REMARK    6  A    between atoms: O_6  and  C_41
REMARK    7  A    between atoms: O_8  and  C_32
REMARK    8  A    between atoms: O_9  and  C_35
REMARK    9  A    between atoms: O_9  and  C_49
REMARK   10  A    between atoms: N_11  and  C_46
REMARK   11  A    between atoms: N_11  and  C_51
REMARK   12  A    between atoms: N_11  and  C_52
REMARK   13  A    between atoms: C_20  and  C_25
REMARK   14  A    between atoms: C_28  and  C_33
REMARK   15  A    between atoms: C_34  and  C_40
REMARK   16  A    between atoms: C_37  and  C_42
REMARK   17  A    between atoms: C_42  and  C_48
REMARK   18  A    between atoms: C_47  and  C_50
REMARK                            x       y       z     vdW  Elec       q    Type
REMARK                         _______ _______ _______ _____ _____    ______ ____
ROOT
ATOM      1  O   UNL     1     106.998 125.575 157.769  0.00  0.00    -0.292 OA
ATOM      2  O   UNL     1     109.374 128.282 160.940  0.00  0.00    -0.461 OA
ATOM      3  O   UNL     1     111.156 126.985 161.127  0.00  0.00    -0.251 OA
ATOM      4  C   UNL     1     112.420 124.541 156.582  0.00  0.00    +0.006 C 
ATOM      5  C   UNL     1     111.186 123.908 157.215  0.00  0.00    +0.023 C 
ATOM      6  C   UNL     1     113.703 124.455 157.454  0.00  0.00    +0.021 C 
ATOM      7  C   UNL     1     111.008 124.292 158.718  0.00  0.00    +0.027 C 
ATOM      8  C   UNL     1     112.846 123.924 155.223  0.00  0.00    +0.036 C 
ATOM      9  C   UNL     1     114.648 123.556 156.662  0.00  0.00    +0.039 C 
ATOM     10  C   UNL     1     114.369 124.105 155.258  0.00  0.00    +0.122 C 
ATOM     11  C   UNL     1     110.141 125.587 158.662  0.00  0.00    +0.040 C 
ATOM     12  C   UNL     1     113.545 124.262 158.921  0.00  0.00    -0.073 C 
ATOM     13  C   UNL     1     109.914 124.430 156.596  0.00  0.00    -0.015 C 
ATOM     14  C   UNL     1     112.312 124.332 159.484  0.00  0.00    -0.023 C 
ATOM     15  C   UNL     1     109.303 125.308 157.406  0.00  0.00    -0.004 C 
ATOM     16  C   UNL     1     109.360 125.995 159.944  0.00  0.00    +0.129 C 
ATOM     17  C   UNL     1     114.838 124.236 159.683  0.00  0.00    +0.039 C 
ATOM     18  C   UNL     1     107.964 125.911 157.087  0.00  0.00    +0.164 C 
ATOM     19  C   UNL     1     107.854 126.969 155.969  0.00  0.00    +0.086 C 
ATOM     20  C   UNL     1     110.036 127.146 160.663  0.00  0.00    +0.308 C 
ATOM     21  C   UNL     1     108.408 128.392 156.331  0.00  0.00    +0.132 C 
ATOM     22  C   UNL     1     106.406 127.110 155.455  0.00  0.00    +0.018 C 
ATOM     23  C   UNL     1     109.468 128.301 157.430  0.00  0.00    +0.032 C 
ATOM     24  C   UNL     1     108.507 129.243 160.219  0.00  0.00    +0.176 C 
ATOM     25  C   UNL     1     110.133 129.436 158.171  0.00  0.00    +0.006 C 
ATOM     26  C   UNL     1     109.239 130.126 159.178  0.00  0.00    +0.045 C 
ENDROOT
BRANCH  24  27
ATOM     27  C   UNL     1     107.134 128.731 159.770  0.00  0.00    +0.041 C 
ATOM     28  C   UNL     1     106.393 128.042 160.905  0.00  0.00    +0.007 C 
ENDBRANCH  24  27
BRANCH  10  29
ATOM     29  O   UNL     1     114.528 125.517 155.248  0.00  0.00    -0.345 OA
BRANCH  29  31
ATOM     30  O   UNL     1     114.973 127.391 154.024  0.00  0.00    -0.343 OA
ATOM     31  C   UNL     1     115.557 126.248 154.627  0.00  0.00    +0.282 C 
ATOM     32  C   UNL     1     116.591 125.435 153.822  0.00  0.00    +0.205 C 
ATOM     33  C   UNL     1     116.244 125.422 152.330  0.00  0.00    +0.179 C 
ATOM     34  C   UNL     1     114.525 127.309 152.681  0.00  0.00    +0.150 C 
ATOM     35  C   UNL     1     115.631 126.738 151.775  0.00  0.00    +0.177 C 
ATOM     36  C   UNL     1     113.114 126.752 152.522  0.00  0.00    +0.041 C 
BRANCH  32  37
ATOM     37  O   UNL     1     117.985 125.608 154.155  0.00  0.00    -0.372 OA
ATOM     38  C   UNL     1     118.593 124.863 155.193  0.00  0.00    +0.194 C 
ENDBRANCH  32  37
BRANCH  33  39
ATOM     39  O   UNL     1     117.326 124.918 151.540  0.00  0.00    -0.386 OA
ATOM     40  H   UNL     1     117.507 124.006 151.843  0.00  0.00    +0.210 HD
ENDBRANCH  33  39
BRANCH  35  41
ATOM     41  O   UNL     1     116.671 127.694 151.474  0.00  0.00    -0.375 OA
ATOM     42  C   UNL     1     116.712 128.271 150.174  0.00  0.00    +0.194 C 
ENDBRANCH  35  41
ENDBRANCH  29  31
ENDBRANCH  10  29
BRANCH  21  43
ATOM     43  O   UNL     1     108.765 128.951 155.067  0.00  0.00    -0.347 OA
BRANCH  43  45
ATOM     44  O   UNL     1     108.978 130.698 153.592  0.00  0.00    -0.347 OA
ATOM     45  C   UNL     1     108.172 130.158 154.632  0.00  0.00    +0.251 C 
ATOM     46  C   UNL     1     107.833 131.115 155.797  0.00  0.00    +0.063 C 
ATOM     47  C   UNL     1     108.656 132.373 155.969  0.00  0.00    +0.026 C 
ATOM     48  C   UNL     1     109.328 132.840 154.689  0.00  0.00    +0.085 C 
ATOM     49  C   UNL     1     109.984 131.610 154.004  0.00  0.00    +0.135 C 
ATOM     50  C   UNL     1     111.049 130.898 154.851  0.00  0.00    +0.039 C 
BRANCH  48  51
ATOM     51  N   UNL     1     108.411 133.682 153.867  0.00  0.00    -0.303 NA
ATOM     52  C   UNL     1     107.607 134.565 154.707  0.00  0.00    +0.105 C 
ATOM     53  C   UNL     1     108.993 134.453 152.770  0.00  0.00    +0.105 C 
ENDBRANCH  48  51
ENDBRANCH  43  45
ENDBRANCH  21  43
TORSDOF 9
ENDMDL
MODEL 6
REMARK VINA RESULT:      -7.8     42.580     46.774
REMARK  Name = 
REMARK  18 active torsions:
REMARK  status: ('A' for Active; 'I' for Inactive)
REMARK    1  A    between atoms: O_1  and  C_18
REMARK    2  A    between atoms: O_1  and  C_27
REMARK    3  A    between atoms: O_5  and  C_30
REMARK    4  A    between atoms: O_5  and  C_44
REMARK    5  A    between atoms: O_6  and  C_31
REMARK    6  A    between atoms: O_6  and  C_41
REMARK    7  A    between atoms: O_8  and  C_32
REMARK    8  A    between atoms: O_9  and  C_35
REMARK    9  A    between atoms: O_9  and  C_49
REMARK   10  A    between atoms: N_11  and  C_46
REMARK   11  A    between atoms: N_11  and  C_51
REMARK   12  A    between atoms: N_11  and  C_52
REMARK   13  A    between atoms: C_20  and  C_25
REMARK   14  A    between atoms: C_28  and  C_33
REMARK   15  A    between atoms: C_34  and  C_40
REMARK   16  A    between atoms: C_37  and  C_42
REMARK   17  A    between atoms: C_42  and  C_48
REMARK   18  A    between atoms: C_47  and  C_50
REMARK                            x       y       z     vdW  Elec       q    Type
REMARK                         _______ _______ _______ _____ _____    ______ ____
ROOT
ATOM      1  O   UNL     1     107.936 126.043 160.102  0.00  0.00    -0.292 OA
ATOM      2  O   UNL     1     112.131 127.695 161.745  0.00  0.00    -0.461 OA
ATOM      3  O   UNL     1     113.354 125.937 161.191  0.00  0.00    -0.251 OA
ATOM      4  C   UNL     1     111.730 123.622 156.694  0.00  0.00    +0.006 C 
ATOM      5  C   UNL     1     110.774 123.313 157.841  0.00  0.00    +0.023 C 
ATOM      6  C   UNL     1     113.179 123.106 156.910  0.00  0.00    +0.021 C 
ATOM      7  C   UNL     1     111.393 123.605 159.244  0.00  0.00    +0.027 C 
ATOM      8  C   UNL     1     111.319 123.025 155.321  0.00  0.00    +0.036 C 
ATOM      9  C   UNL     1     113.376 122.046 155.830  0.00  0.00    +0.039 C 
ATOM     10  C   UNL     1     112.682 122.766 154.668  0.00  0.00    +0.122 C 
ATOM     11  C   UNL     1     111.005 125.092 159.509  0.00  0.00    +0.040 C 
ATOM     12  C   UNL     1     113.632 122.844 158.303  0.00  0.00    -0.073 C 
ATOM     13  C   UNL     1     109.572 124.223 157.822  0.00  0.00    -0.015 C 
ATOM     14  C   UNL     1     112.850 123.212 159.350  0.00  0.00    -0.023 C 
ATOM     15  C   UNL     1     109.661 125.167 158.771  0.00  0.00    -0.004 C 
ATOM     16  C   UNL     1     111.020 125.596 160.980  0.00  0.00    +0.129 C 
ATOM     17  C   UNL     1     115.059 122.391 158.414  0.00  0.00    +0.039 C 
ATOM     18  C   UNL     1     108.557 126.147 159.047  0.00  0.00    +0.164 C 
ATOM     19  C   UNL     1     108.279 127.283 158.038  0.00  0.00    +0.086 C 
ATOM     20  C   UNL     1     112.244 126.446 161.264  0.00  0.00    +0.308 C 
ATOM     21  C   UNL     1     109.321 128.456 158.041  0.00  0.00    +0.132 C 
ATOM     22  C   UNL     1     106.863 127.869 158.212  0.00  0.00    +0.018 C 
ATOM     23  C   UNL     1     110.678 127.979 158.561  0.00  0.00    +0.032 C 
ATOM     24  C   UNL     1     111.356 128.919 161.433  0.00  0.00    +0.176 C 
ATOM     25  C   UNL     1     111.898 128.814 158.869  0.00  0.00    +0.006 C 
ATOM     26  C   UNL     1     111.778 129.642 160.130  0.00  0.00    +0.045 C 
ENDROOT
BRANCH  24  27
ATOM     27  C   UNL     1     109.842 128.854 161.666  0.00  0.00    +0.041 C 
ATOM     28  C   UNL     1     109.169 130.180 161.355  0.00  0.00    +0.007 C 
ENDBRANCH  24  27
BRANCH  10  29
ATOM     29  O   UNL     1     113.222 124.071 154.514  0.00  0.00    -0.345 OA
BRANCH  29  31
ATOM     30  O   UNL     1     114.680 125.752 154.007  0.00  0.00    -0.343 OA
ATOM     31  C   UNL     1     114.217 124.473 153.605  0.00  0.00    +0.282 C 
ATOM     32  C   UNL     1     113.924 124.230 152.110  0.00  0.00    +0.205 C 
ATOM     33  C   UNL     1     113.366 125.491 151.444  0.00  0.00    +0.179 C 
ATOM     34  C   UNL     1     114.048 126.909 153.483  0.00  0.00    +0.150 C 
ATOM     35  C   UNL     1     113.964 126.834 151.949  0.00  0.00    +0.177 C 
ATOM     36  C   UNL     1     112.800 127.343 154.246  0.00  0.00    +0.041 C 
BRANCH  32  37
ATOM     37  O   UNL     1     114.895 123.478 151.351  0.00  0.00    -0.372 OA
ATOM     38  C   UNL     1     115.352 122.212 151.787  0.00  0.00    +0.194 C 
ENDBRANCH  32  37
BRANCH  33  39
ATOM     39  O   UNL     1     113.352 125.373 150.016  0.00  0.00    -0.386 OA
ATOM     40  H   UNL     1     112.592 124.806 149.780  0.00  0.00    +0.210 HD
ENDBRANCH  33  39
BRANCH  35  41
ATOM     41  O   UNL     1     115.225 127.105 151.296  0.00  0.00    -0.375 OA
ATOM     42  C   UNL     1     116.031 128.170 151.785  0.00  0.00    +0.194 C 
ENDBRANCH  35  41
ENDBRANCH  29  31
ENDBRANCH  10  29
BRANCH  21  43
ATOM     43  O   UNL     1     109.232 128.995 156.723  0.00  0.00    -0.347 OA
BRANCH  43  45
ATOM     44  O   UNL     1     108.073 130.922 156.259  0.00  0.00    -0.347 OA
ATOM     45  C   UNL     1     109.365 130.386 156.514  0.00  0.00    +0.251 C 
ATOM     46  C   UNL     1     110.462 130.737 155.484  0.00  0.00    +0.063 C 
ATOM     47  C   UNL     1     110.047 131.260 154.126  0.00  0.00    +0.026 C 
ATOM     48  C   UNL     1     108.674 131.910 154.119  0.00  0.00    +0.085 C 
ATOM     49  C   UNL     1     107.692 130.987 154.893  0.00  0.00    +0.135 C 
ATOM     50  C   UNL     1     107.539 129.578 154.304  0.00  0.00    +0.039 C 
BRANCH  48  51
ATOM     51  N   UNL     1     108.745 133.342 154.529  0.00  0.00    -0.303 NA
ATOM     52  C   UNL     1     109.760 134.061 153.766  0.00  0.00    +0.105 C 
ATOM     53  C   UNL     1     107.503 134.113 154.532  0.00  0.00    +0.105 C 
ENDBRANCH  48  51
ENDBRANCH  43  45
ENDBRANCH  21  43
TORSDOF 9
ENDMDL
MODEL 7
REMARK VINA RESULT:      -7.7      2.234      3.543
REMARK  Name = 
REMARK  18 active torsions:
REMARK  status: ('A' for Active; 'I' for Inactive)
REMARK    1  A    between atoms: O_1  and  C_18
REMARK    2  A    between atoms: O_1  and  C_27
REMARK    3  A    between atoms: O_5  and  C_30
REMARK    4  A    between atoms: O_5  and  C_44
REMARK    5  A    between atoms: O_6  and  C_31
REMARK    6  A    between atoms: O_6  and  C_41
REMARK    7  A    between atoms: O_8  and  C_32
REMARK    8  A    between atoms: O_9  and  C_35
REMARK    9  A    between atoms: O_9  and  C_49
REMARK   10  A    between atoms: N_11  and  C_46
REMARK   11  A    between atoms: N_11  and  C_51
REMARK   12  A    between atoms: N_11  and  C_52
REMARK   13  A    between atoms: C_20  and  C_25
REMARK   14  A    between atoms: C_28  and  C_33
REMARK   15  A    between atoms: C_34  and  C_40
REMARK   16  A    between atoms: C_37  and  C_42
REMARK   17  A    between atoms: C_42  and  C_48
REMARK   18  A    between atoms: C_47  and  C_50
REMARK                            x       y       z     vdW  Elec       q    Type
REMARK                         _______ _______ _______ _____ _____    ______ ____
ROOT
ATOM      1  O   UNL     1     116.095 120.909 109.495  0.00  0.00    -0.292 OA
ATOM      2  O   UNL     1     116.086 118.173 113.438  0.00  0.00    -0.461 OA
ATOM      3  O   UNL     1     117.705 116.798 112.821  0.00  0.00    -0.251 OA
ATOM      4  C   UNL     1     121.455 119.189 109.915  0.00  0.00    +0.006 C 
ATOM      5  C   UNL     1     120.186 118.978 109.098  0.00  0.00    +0.023 C 
ATOM      6  C   UNL     1     122.116 117.878 110.423  0.00  0.00    +0.021 C 
ATOM      7  C   UNL     1     119.215 117.937 109.739  0.00  0.00    +0.027 C 
ATOM      8  C   UNL     1     122.601 119.922 109.167  0.00  0.00    +0.036 C 
ATOM      9  C   UNL     1     123.459 117.817 109.699  0.00  0.00    +0.039 C 
ATOM     10  C   UNL     1     123.847 119.296 109.805  0.00  0.00    +0.122 C 
ATOM     11  C   UNL     1     118.308 118.807 110.662  0.00  0.00    +0.040 C 
ATOM     12  C   UNL     1     121.270 116.658 110.528  0.00  0.00    -0.073 C 
ATOM     13  C   UNL     1     119.340 120.226 109.056  0.00  0.00    -0.015 C 
ATOM     14  C   UNL     1     119.928 116.748 110.345  0.00  0.00    -0.023 C 
ATOM     15  C   UNL     1     118.275 120.119 109.866  0.00  0.00    -0.004 C 
ATOM     16  C   UNL     1     116.933 118.220 111.092  0.00  0.00    +0.129 C 
ATOM     17  C   UNL     1     121.985 115.454 111.068  0.00  0.00    +0.039 C 
ATOM     18  C   UNL     1     117.207 121.173 109.945  0.00  0.00    +0.164 C 
ATOM     19  C   UNL     1     117.516 122.517 110.639  0.00  0.00    +0.086 C 
ATOM     20  C   UNL     1     116.964 117.725 112.525  0.00  0.00    +0.308 C 
ATOM     21  C   UNL     1     117.583 122.467 112.206  0.00  0.00    +0.132 C 
ATOM     22  C   UNL     1     116.526 123.621 110.214  0.00  0.00    +0.018 C 
ATOM     23  C   UNL     1     117.939 121.062 112.692  0.00  0.00    +0.032 C 
ATOM     24  C   UNL     1     115.567 119.481 113.902  0.00  0.00    +0.176 C 
ATOM     25  C   UNL     1     117.954 120.548 114.111  0.00  0.00    +0.006 C 
ATOM     26  C   UNL     1     116.578 120.335 114.706  0.00  0.00    +0.045 C 
ENDROOT
BRANCH  24  27
ATOM     27  C   UNL     1     114.709 120.273 112.909  0.00  0.00    +0.041 C 
ATOM     28  C   UNL     1     114.243 121.594 113.499  0.00  0.00    +0.007 C 
ENDBRANCH  24  27
BRANCH  10  29
ATOM     29  O   UNL     1     123.769 119.723 111.158  0.00  0.00    -0.345 OA
BRANCH  29  31
ATOM     30  O   UNL     1     124.919 121.683 110.953  0.00  0.00    -0.343 OA
ATOM     31  C   UNL     1     123.854 121.043 111.636  0.00  0.00    +0.282 C 
ATOM     32  C   UNL     1     123.736 121.232 113.162  0.00  0.00    +0.205 C 
ATOM     33  C   UNL     1     125.119 121.329 113.816  0.00  0.00    +0.179 C 
ATOM     34  C   UNL     1     126.223 121.635 111.509  0.00  0.00    +0.150 C 
ATOM     35  C   UNL     1     126.200 122.073 112.983  0.00  0.00    +0.177 C 
ATOM     36  C   UNL     1     127.013 120.380 111.149  0.00  0.00    +0.041 C 
BRANCH  32  37
ATOM     37  O   UNL     1     122.730 122.146 113.648  0.00  0.00    -0.372 OA
ATOM     38  C   UNL     1     121.746 121.734 114.577  0.00  0.00    +0.194 C 
ENDBRANCH  32  37
BRANCH  33  39
ATOM     39  O   UNL     1     125.031 121.779 115.172  0.00  0.00    -0.386 OA
ATOM     40  H   UNL     1     124.089 121.960 115.358  0.00  0.00    +0.210 HD
ENDBRANCH  33  39
BRANCH  35  41
ATOM     41  O   UNL     1     126.074 123.503 113.151  0.00  0.00    -0.375 OA
ATOM     42  C   UNL     1     126.952 124.164 114.055  0.00  0.00    +0.194 C 
ENDBRANCH  35  41
ENDBRANCH  29  31
ENDBRANCH  10  29
BRANCH  21  43
ATOM     43  O   UNL     1     118.438 123.558 112.546  0.00  0.00    -0.347 OA
BRANCH  43  45
ATOM     44  O   UNL     1     120.471 124.517 113.015  0.00  0.00    -0.347 OA
ATOM     45  C   UNL     1     119.826 123.478 112.290  0.00  0.00    +0.251 C 
ATOM     46  C   UNL     1     120.155 123.394 110.782  0.00  0.00    +0.063 C 
ATOM     47  C   UNL     1     120.788 124.591 110.108  0.00  0.00    +0.026 C 
ATOM     48  C   UNL     1     121.538 125.502 111.064  0.00  0.00    +0.085 C 
ATOM     49  C   UNL     1     120.647 125.739 112.315  0.00  0.00    +0.135 C 
ATOM     50  C   UNL     1     119.291 126.396 112.019  0.00  0.00    +0.039 C 
BRANCH  48  51
ATOM     51  N   UNL     1     122.934 125.027 111.290  0.00  0.00    -0.303 NA
ATOM     52  C   UNL     1     123.523 124.509 110.059  0.00  0.00    +0.105 C 
ATOM     53  C   UNL     1     123.873 125.948 111.928  0.00  0.00    +0.105 C 
ENDBRANCH  48  51
ENDBRANCH  43  45
ENDBRANCH  21  43
TORSDOF 9
ENDMDL
MODEL 8
REMARK VINA RESULT:      -7.6     64.794     69.601
REMARK  Name = 
REMARK  18 active torsions:
REMARK  status: ('A' for Active; 'I' for Inactive)
REMARK    1  A    between atoms: O_1  and  C_18
REMARK    2  A    between atoms: O_1  and  C_27
REMARK    3  A    between atoms: O_5  and  C_30
REMARK    4  A    between atoms: O_5  and  C_44
REMARK    5  A    between atoms: O_6  and  C_31
REMARK    6  A    between atoms: O_6  and  C_41
REMARK    7  A    between atoms: O_8  and  C_32
REMARK    8  A    between atoms: O_9  and  C_35
REMARK    9  A    between atoms: O_9  and  C_49
REMARK   10  A    between atoms: N_11  and  C_46
REMARK   11  A    between atoms: N_11  and  C_51
REMARK   12  A    between atoms: N_11  and  C_52
REMARK   13  A    between atoms: C_20  and  C_25
REMARK   14  A    between atoms: C_28  and  C_33
REMARK   15  A    between atoms: C_34  and  C_40
REMARK   16  A    between atoms: C_37  and  C_42
REMARK   17  A    between atoms: C_42  and  C_48
REMARK   18  A    between atoms: C_47  and  C_50
REMARK                            x       y       z     vdW  Elec       q    Type
REMARK                         _______ _______ _______ _____ _____    ______ ____
ROOT
ATOM      1  O   UNL     1     114.158 136.081  42.827  0.00  0.00    -0.292 OA
ATOM      2  O   UNL     1     118.584 135.048  44.368  0.00  0.00    -0.461 OA
ATOM      3  O   UNL     1     119.653 136.569  43.169  0.00  0.00    -0.251 OA
ATOM      4  C   UNL     1     116.849 141.034  42.516  0.00  0.00    +0.006 C 
ATOM      5  C   UNL     1     116.294 139.911  41.647  0.00  0.00    +0.023 C 
ATOM      6  C   UNL     1     118.316 141.430  42.191  0.00  0.00    +0.021 C 
ATOM      7  C   UNL     1     117.292 138.723  41.477  0.00  0.00    +0.027 C 
ATOM      8  C   UNL     1     116.070 142.373  42.429  0.00  0.00    +0.036 C 
ATOM      9  C   UNL     1     118.223 142.860  41.667  0.00  0.00    +0.039 C 
ATOM     10  C   UNL     1     117.184 143.403  42.656  0.00  0.00    +0.122 C 
ATOM     11  C   UNL     1     116.944 137.781  42.670  0.00  0.00    +0.040 C 
ATOM     12  C   UNL     1     119.176 140.435  41.493  0.00  0.00    -0.073 C 
ATOM     13  C   UNL     1     115.106 139.244  42.294  0.00  0.00    -0.015 C 
ATOM     14  C   UNL     1     118.729 139.167  41.307  0.00  0.00    -0.023 C 
ATOM     15  C   UNL     1     115.438 138.050  42.807  0.00  0.00    -0.004 C 
ATOM     16  C   UNL     1     117.379 136.291  42.572  0.00  0.00    +0.129 C 
ATOM     17  C   UNL     1     120.587 140.892  41.263  0.00  0.00    +0.039 C 
ATOM     18  C   UNL     1     114.429 137.122  43.422  0.00  0.00    +0.164 C 
ATOM     19  C   UNL     1     113.817 137.466  44.797  0.00  0.00    +0.086 C 
ATOM     20  C   UNL     1     118.597 136.011  43.431  0.00  0.00    +0.308 C 
ATOM     21  C   UNL     1     114.766 137.252  46.029  0.00  0.00    +0.132 C 
ATOM     22  C   UNL     1     112.497 136.709  45.042  0.00  0.00    +0.018 C 
ATOM     23  C   UNL     1     116.233 137.343  45.610  0.00  0.00    +0.032 C 
ATOM     24  C   UNL     1     117.703 134.620  45.480  0.00  0.00    +0.176 C 
ATOM     25  C   UNL     1     117.455 137.046  46.445  0.00  0.00    +0.006 C 
ATOM     26  C   UNL     1     117.687 135.572  46.701  0.00  0.00    +0.045 C 
ENDROOT
BRANCH  24  27
ATOM     27  C   UNL     1     116.333 134.052  45.094  0.00  0.00    +0.041 C 
ATOM     28  C   UNL     1     115.479 133.763  46.317  0.00  0.00    +0.007 C 
ENDBRANCH  24  27
BRANCH  10  29
ATOM     29  O   UNL     1     117.601 143.142  43.989  0.00  0.00    -0.345 OA
BRANCH  29  31
ATOM     30  O   UNL     1     117.312 142.916  46.241  0.00  0.00    -0.343 OA
ATOM     31  C   UNL     1     117.188 143.815  45.152  0.00  0.00    +0.282 C 
ATOM     32  C   UNL     1     115.904 144.663  45.038  0.00  0.00    +0.205 C 
ATOM     33  C   UNL     1     114.681 143.885  45.534  0.00  0.00    +0.179 C 
ATOM     34  C   UNL     1     116.206 142.098  46.590  0.00  0.00    +0.150 C 
ATOM     35  C   UNL     1     114.933 142.948  46.747  0.00  0.00    +0.177 C 
ATOM     36  C   UNL     1     116.107 140.803  45.792  0.00  0.00    +0.041 C 
BRANCH  32  37
ATOM     37  O   UNL     1     115.982 146.052  45.425  0.00  0.00    -0.372 OA
ATOM     38  C   UNL     1     115.812 147.092  44.480  0.00  0.00    +0.194 C 
ENDBRANCH  32  37
BRANCH  33  39
ATOM     39  O   UNL     1     113.542 144.739  45.696  0.00  0.00    -0.386 OA
ATOM     40  H   UNL     1     113.771 145.606  45.307  0.00  0.00    +0.210 HD
ENDBRANCH  33  39
BRANCH  35  41
ATOM     41  O   UNL     1     114.896 143.697  47.983  0.00  0.00    -0.375 OA
ATOM     42  C   UNL     1     113.979 143.298  48.995  0.00  0.00    +0.194 C 
ENDBRANCH  35  41
ENDBRANCH  29  31
ENDBRANCH  10  29
BRANCH  21  43
ATOM     43  O   UNL     1     114.265 138.162  47.008  0.00  0.00    -0.347 OA
BRANCH  43  45
ATOM     44  O   UNL     1     114.069 138.788  49.208  0.00  0.00    -0.347 OA
ATOM     45  C   UNL     1     113.933 137.701  48.302  0.00  0.00    +0.251 C 
ATOM     46  C   UNL     1     114.673 136.399  48.684  0.00  0.00    +0.063 C 
ATOM     47  C   UNL     1     115.768 136.463  49.726  0.00  0.00    +0.026 C 
ATOM     48  C   UNL     1     115.639 137.644  50.672  0.00  0.00    +0.085 C 
ATOM     49  C   UNL     1     115.339 138.915  49.830  0.00  0.00    +0.135 C 
ATOM     50  C   UNL     1     116.418 139.267  48.796  0.00  0.00    +0.039 C 
BRANCH  48  51
ATOM     51  N   UNL     1     114.724 137.336  51.809  0.00  0.00    -0.303 NA
ATOM     52  C   UNL     1     114.994 136.013  52.363  0.00  0.00    +0.105 C 
ATOM     53  C   UNL     1     114.637 138.309  52.897  0.00  0.00    +0.105 C 
ENDBRANCH  48  51
ENDBRANCH  43  45
ENDBRANCH  21  43
TORSDOF 9
ENDMDL
MODEL 9
REMARK VINA RESULT:      -7.5      2.221      3.383
REMARK  Name = 
REMARK  18 active torsions:
REMARK  status: ('A' for Active; 'I' for Inactive)
REMARK    1  A    between atoms: O_1  and  C_18
REMARK    2  A    between atoms: O_1  and  C_27
REMARK    3  A    between atoms: O_5  and  C_30
REMARK    4  A    between atoms: O_5  and  C_44
REMARK    5  A    between atoms: O_6  and  C_31
REMARK    6  A    between atoms: O_6  and  C_41
REMARK    7  A    between atoms: O_8  and  C_32
REMARK    8  A    between atoms: O_9  and  C_35
REMARK    9  A    between atoms: O_9  and  C_49
REMARK   10  A    between atoms: N_11  and  C_46
REMARK   11  A    between atoms: N_11  and  C_51
REMARK   12  A    between atoms: N_11  and  C_52
REMARK   13  A    between atoms: C_20  and  C_25
REMARK   14  A    between atoms: C_28  and  C_33
REMARK   15  A    between atoms: C_34  and  C_40
REMARK   16  A    between atoms: C_37  and  C_42
REMARK   17  A    between atoms: C_42  and  C_48
REMARK   18  A    between atoms: C_47  and  C_50
REMARK                            x       y       z     vdW  Elec       q    Type
REMARK                         _______ _______ _______ _____ _____    ______ ____
ROOT
ATOM      1  O   UNL     1     118.577 121.358 107.563  0.00  0.00    -0.292 OA
ATOM      2  O   UNL     1     116.360 119.815 111.530  0.00  0.00    -0.461 OA
ATOM      3  O   UNL     1     117.384 117.859 111.672  0.00  0.00    -0.251 OA
ATOM      4  C   UNL     1     122.428 118.038 110.015  0.00  0.00    +0.006 C 
ATOM      5  C   UNL     1     121.466 118.093 108.835  0.00  0.00    +0.023 C 
ATOM      6  C   UNL     1     122.330 116.740 110.862  0.00  0.00    +0.021 C 
ATOM      7  C   UNL     1     120.020 117.637 109.206  0.00  0.00    +0.027 C 
ATOM      8  C   UNL     1     123.931 118.129 109.638  0.00  0.00    +0.036 C 
ATOM      9  C   UNL     1     123.676 116.047 110.665  0.00  0.00    +0.039 C 
ATOM     10  C   UNL     1     124.584 117.280 110.736  0.00  0.00    +0.122 C 
ATOM     11  C   UNL     1     119.325 118.960 109.652  0.00  0.00    +0.040 C 
ATOM     12  C   UNL     1     121.070 115.951 110.798  0.00  0.00    -0.073 C 
ATOM     13  C   UNL     1     121.247 119.509 108.363  0.00  0.00    -0.015 C 
ATOM     14  C   UNL     1     119.988 116.455 110.150  0.00  0.00    -0.023 C 
ATOM     15  C   UNL     1     120.051 119.974 108.756  0.00  0.00    -0.004 C 
ATOM     16  C   UNL     1     117.770 119.006 109.637  0.00  0.00    +0.129 C 
ATOM     17  C   UNL     1     121.053 114.739 111.684  0.00  0.00    +0.039 C 
ATOM     18  C   UNL     1     119.527 121.319 108.341  0.00  0.00    +0.164 C 
ATOM     19  C   UNL     1     120.148 122.597 108.946  0.00  0.00    +0.086 C 
ATOM     20  C   UNL     1     117.198 118.887 111.036  0.00  0.00    +0.308 C 
ATOM     21  C   UNL     1     119.748 122.900 110.434  0.00  0.00    +0.132 C 
ATOM     22  C   UNL     1     119.852 123.841 108.084  0.00  0.00    +0.018 C 
ATOM     23  C   UNL     1     119.353 121.616 111.165  0.00  0.00    +0.032 C 
ATOM     24  C   UNL     1     116.310 121.292 111.636  0.00  0.00    +0.176 C 
ATOM     25  C   UNL     1     118.761 121.482 112.547  0.00  0.00    +0.006 C 
ATOM     26  C   UNL     1     117.312 121.907 112.644  0.00  0.00    +0.045 C 
ENDROOT
BRANCH  24  27
ATOM     27  C   UNL     1     116.160 122.073 110.326  0.00  0.00    +0.041 C 
ATOM     28  C   UNL     1     116.222 123.574 110.556  0.00  0.00    +0.007 C 
ENDBRANCH  24  27
BRANCH  10  29
ATOM     29  O   UNL     1     124.312 118.015 111.921  0.00  0.00    -0.345 OA
BRANCH  29  31
ATOM     30  O   UNL     1     124.529 119.472 113.664  0.00  0.00    -0.343 OA
ATOM     31  C   UNL     1     124.898 119.231 112.316  0.00  0.00    +0.282 C 
ATOM     32  C   UNL     1     124.815 120.396 111.308  0.00  0.00    +0.205 C 
ATOM     33  C   UNL     1     123.635 121.320 111.627  0.00  0.00    +0.179 C 
ATOM     34  C   UNL     1     123.349 120.211 113.934  0.00  0.00    +0.150 C 
ATOM     35  C   UNL     1     123.339 121.527 113.138  0.00  0.00    +0.177 C 
ATOM     36  C   UNL     1     122.073 119.374 113.946  0.00  0.00    +0.041 C 
BRANCH  32  37
ATOM     37  O   UNL     1     126.049 121.039 110.924  0.00  0.00    -0.372 OA
ATOM     38  C   UNL     1     127.007 121.431 111.888  0.00  0.00    +0.194 C 
ENDBRANCH  32  37
BRANCH  33  39
ATOM     39  O   UNL     1     123.706 122.542 110.885  0.00  0.00    -0.386 OA
ATOM     40  H   UNL     1     123.303 122.375 110.010  0.00  0.00    +0.210 HD
ENDBRANCH  33  39
BRANCH  35  41
ATOM     41  O   UNL     1     124.215 122.535 113.693  0.00  0.00    -0.375 OA
ATOM     42  C   UNL     1     123.926 123.052 114.987  0.00  0.00    +0.194 C 
ENDBRANCH  35  41
ENDBRANCH  29  31
ENDBRANCH  10  29
BRANCH  21  43
ATOM     43  O   UNL     1     120.841 123.673 110.929  0.00  0.00    -0.347 OA
BRANCH  43  45
ATOM     44  O   UNL     1     119.493 124.622 112.527  0.00  0.00    -0.347 OA
ATOM     45  C   UNL     1     120.814 124.175 112.250  0.00  0.00    +0.251 C 
ATOM     46  C   UNL     1     121.948 125.186 112.532  0.00  0.00    +0.063 C 
ATOM     47  C   UNL     1     121.597 126.649 112.692  0.00  0.00    +0.026 C 
ATOM     48  C   UNL     1     120.158 126.885 113.120  0.00  0.00    +0.085 C 
ATOM     49  C   UNL     1     119.235 125.991 112.248  0.00  0.00    +0.135 C 
ATOM     50  C   UNL     1     119.319 126.263 110.739  0.00  0.00    +0.039 C 
BRANCH  48  51
ATOM     51  N   UNL     1     120.007 126.798 114.601  0.00  0.00    -0.303 NA
ATOM     52  C   UNL     1     119.562 128.069 115.164  0.00  0.00    +0.105 C 
ATOM     53  C   UNL     1     119.187 125.715 115.141  0.00  0.00    +0.105 C 
ENDBRANCH  48  51
ENDBRANCH  43  45
ENDBRANCH  21  43
TORSDOF 9
ENDMDL
MODEL 10
REMARK VINA RESULT:      -7.4      2.502      4.347
REMARK  Name = 
REMARK  18 active torsions:
REMARK  status: ('A' for Active; 'I' for Inactive)
REMARK    1  A    between atoms: O_1  and  C_18
REMARK    2  A    between atoms: O_1  and  C_27
REMARK    3  A    between atoms: O_5  and  C_30
REMARK    4  A    between atoms: O_5  and  C_44
REMARK    5  A    between atoms: O_6  and  C_31
REMARK    6  A    between atoms: O_6  and  C_41
REMARK    7  A    between atoms: O_8  and  C_32
REMARK    8  A    between atoms: O_9  and  C_35
REMARK    9  A    between atoms: O_9  and  C_49
REMARK   10  A    between atoms: N_11  and  C_46
REMARK   11  A    between atoms: N_11  and  C_51
REMARK   12  A    between atoms: N_11  and  C_52
REMARK   13  A    between atoms: C_20  and  C_25
REMARK   14  A    between atoms: C_28  and  C_33
REMARK   15  A    between atoms: C_34  and  C_40
REMARK   16  A    between atoms: C_37  and  C_42
REMARK   17  A    between atoms: C_42  and  C_48
REMARK   18  A    between atoms: C_47  and  C_50
REMARK                            x       y       z     vdW  Elec       q    Type
REMARK                         _______ _______ _______ _____ _____    ______ ____
ROOT
ATOM      1  O   UNL     1     117.224 120.657 109.235  0.00  0.00    -0.292 OA
ATOM      2  O   UNL     1     117.527 118.812 113.654  0.00  0.00    -0.461 OA
ATOM      3  O   UNL     1     119.083 117.302 113.215  0.00  0.00    -0.251 OA
ATOM      4  C   UNL     1     122.593 118.946 109.581  0.00  0.00    +0.006 C 
ATOM      5  C   UNL     1     121.259 118.596 108.930  0.00  0.00    +0.023 C 
ATOM      6  C   UNL     1     123.287 117.756 110.300  0.00  0.00    +0.021 C 
ATOM      7  C   UNL     1     120.340 117.735 109.852  0.00  0.00    +0.027 C 
ATOM      8  C   UNL     1     123.676 119.480 108.606  0.00  0.00    +0.036 C 
ATOM      9  C   UNL     1     124.565 117.515 109.501  0.00  0.00    +0.039 C 
ATOM     10  C   UNL     1     124.968 118.974 109.261  0.00  0.00    +0.122 C 
ATOM     11  C   UNL     1     119.515 118.799 110.639  0.00  0.00    +0.040 C 
ATOM     12  C   UNL     1     122.446 116.605 110.727  0.00  0.00    -0.073 C 
ATOM     13  C   UNL     1     120.418 119.825 108.693  0.00  0.00    -0.015 C 
ATOM     14  C   UNL     1     121.094 116.684 110.637  0.00  0.00    -0.023 C 
ATOM     15  C   UNL     1     119.424 119.915 109.589  0.00  0.00    -0.004 C 
ATOM     16  C   UNL     1     118.178 118.346 111.292  0.00  0.00    +0.129 C 
ATOM     17  C   UNL     1     123.197 115.526 111.451  0.00  0.00    +0.039 C 
ATOM     18  C   UNL     1     118.371 120.985 109.529  0.00  0.00    +0.164 C 
ATOM     19  C   UNL     1     118.742 122.438 109.896  0.00  0.00    +0.086 C 
ATOM     20  C   UNL     1     118.325 118.163 112.790  0.00  0.00    +0.308 C 
ATOM     21  C   UNL     1     118.938 122.717 111.428  0.00  0.00    +0.132 C 
ATOM     22  C   UNL     1     117.726 123.450 109.328  0.00  0.00    +0.018 C 
ATOM     23  C   UNL     1     119.327 121.437 112.170  0.00  0.00    +0.032 C 
ATOM     24  C   UNL     1     117.054 120.200 113.871  0.00  0.00    +0.176 C 
ATOM     25  C   UNL     1     119.455 121.233 113.660  0.00  0.00    +0.006 C 
ATOM     26  C   UNL     1     118.133 121.181 114.394  0.00  0.00    +0.045 C 
ENDROOT
BRANCH  24  27
ATOM     27  C   UNL     1     116.121 120.784 112.805  0.00  0.00    +0.041 C 
ATOM     28  C   UNL     1     115.051 119.788 112.389  0.00  0.00    +0.007 C 
ENDBRANCH  24  27
BRANCH  10  29
ATOM     29  O   UNL     1     125.003 119.678 110.495  0.00  0.00    -0.345 OA
BRANCH  29  31
ATOM     30  O   UNL     1     126.687 120.992 111.298  0.00  0.00    -0.343 OA
ATOM     31  C   UNL     1     125.403 121.011 110.699  0.00  0.00    +0.282 C 
ATOM     32  C   UNL     1     124.337 121.970 111.267  0.00  0.00    +0.205 C 
ATOM     33  C   UNL     1     124.477 122.115 112.786  0.00  0.00    +0.179 C 
ATOM     34  C   UNL     1     126.789 120.980 112.713  0.00  0.00    +0.150 C 
ATOM     35  C   UNL     1     125.934 122.103 113.326  0.00  0.00    +0.177 C 
ATOM     36  C   UNL     1     126.698 119.591 113.337  0.00  0.00    +0.041 C 
BRANCH  32  37
ATOM     37  O   UNL     1     124.062 123.180 110.530  0.00  0.00    -0.372 OA
ATOM     38  C   UNL     1     125.105 124.036 110.103  0.00  0.00    +0.194 C 
ENDBRANCH  32  37
BRANCH  33  39
ATOM     39  O   UNL     1     123.690 123.200 113.288  0.00  0.00    -0.386 OA
ATOM     40  H   UNL     1     122.774 122.872 113.390  0.00  0.00    +0.210 HD
ENDBRANCH  33  39
BRANCH  35  41
ATOM     41  O   UNL     1     126.534 123.411 113.195  0.00  0.00    -0.375 OA
ATOM     42  C   UNL     1     126.834 124.146 114.376  0.00  0.00    +0.194 C 
ENDBRANCH  35  41
ENDBRANCH  29  31
ENDBRANCH  10  29
BRANCH  21  43
ATOM     43  O   UNL     1     119.824 123.835 111.461  0.00  0.00    -0.347 OA
BRANCH  43  45
ATOM     44  O   UNL     1     118.965 124.777 113.371  0.00  0.00    -0.347 OA
ATOM     45  C   UNL     1     120.168 124.433 112.695  0.00  0.00    +0.251 C 
ATOM     46  C   UNL     1     121.212 125.562 112.545  0.00  0.00    +0.063 C 
ATOM     47  C   UNL     1     120.770 126.994 112.750  0.00  0.00    +0.026 C 
ATOM     48  C   UNL     1     119.530 127.130 113.616  0.00  0.00    +0.085 C 
ATOM     49  C   UNL     1     118.481 126.090 113.134  0.00  0.00    +0.135 C 
ATOM     50  C   UNL     1     118.043 126.253 111.672  0.00  0.00    +0.039 C 
BRANCH  48  51
ATOM     51  N   UNL     1     119.875 127.143 115.067  0.00  0.00    -0.303 NA
ATOM     52  C   UNL     1     119.419 128.372 115.709  0.00  0.00    +0.105 C 
ATOM     53  C   UNL     1     119.468 125.994 115.875  0.00  0.00    +0.105 C 
ENDBRANCH  48  51
ENDBRANCH  43  45
ENDBRANCH  21  43
TORSDOF 9
ENDMDL
MODEL 11
REMARK VINA RESULT:      -7.3      2.973      7.780
REMARK  Name = 
REMARK  18 active torsions:
REMARK  status: ('A' for Active; 'I' for Inactive)
REMARK    1  A    between atoms: O_1  and  C_18
REMARK    2  A    between atoms: O_1  and  C_27
REMARK    3  A    between atoms: O_5  and  C_30
REMARK    4  A    between atoms: O_5  and  C_44
REMARK    5  A    between atoms: O_6  and  C_31
REMARK    6  A    between atoms: O_6  and  C_41
REMARK    7  A    between atoms: O_8  and  C_32
REMARK    8  A    between atoms: O_9  and  C_35
REMARK    9  A    between atoms: O_9  and  C_49
REMARK   10  A    between atoms: N_11  and  C_46
REMARK   11  A    between atoms: N_11  and  C_51
REMARK   12  A    between atoms: N_11  and  C_52
REMARK   13  A    between atoms: C_20  and  C_25
REMARK   14  A    between atoms: C_28  and  C_33
REMARK   15  A    between atoms: C_34  and  C_40
REMARK   16  A    between atoms: C_37  and  C_42
REMARK   17  A    between atoms: C_42  and  C_48
REMARK   18  A    between atoms: C_47  and  C_50
REMARK                            x       y       z     vdW  Elec       q    Type
REMARK                         _______ _______ _______ _____ _____    ______ ____
ROOT
ATOM      1  O   UNL     1     123.169 122.498 115.851  0.00  0.00    -0.292 OA
ATOM      2  O   UNL     1     126.849 123.692 113.011  0.00  0.00    -0.461 OA
ATOM      3  O   UNL     1     126.929 121.805 111.859  0.00  0.00    -0.251 OA
ATOM      4  C   UNL     1     122.137 119.646 111.090  0.00  0.00    +0.006 C 
ATOM      5  C   UNL     1     122.595 119.454 112.531  0.00  0.00    +0.023 C 
ATOM      6  C   UNL     1     123.054 118.975 110.030  0.00  0.00    +0.021 C 
ATOM      7  C   UNL     1     124.127 119.687 112.719  0.00  0.00    +0.027 C 
ATOM      8  C   UNL     1     120.724 119.086 110.773  0.00  0.00    +0.036 C 
ATOM      9  C   UNL     1     122.185 117.891 109.399  0.00  0.00    +0.039 C 
ATOM     10  C   UNL     1     120.870 118.673 109.303  0.00  0.00    +0.122 C 
ATOM     11  C   UNL     1     124.225 121.210 113.040  0.00  0.00    +0.040 C 
ATOM     12  C   UNL     1     124.462 118.676 110.407  0.00  0.00    -0.073 C 
ATOM     13  C   UNL     1     121.995 120.490 113.447  0.00  0.00    -0.015 C 
ATOM     14  C   UNL     1     124.961 119.137 111.582  0.00  0.00    -0.023 C 
ATOM     15  C   UNL     1     122.897 121.427 113.779  0.00  0.00    -0.004 C 
ATOM     16  C   UNL     1     125.510 121.722 113.752  0.00  0.00    +0.129 C 
ATOM     17  C   UNL     1     125.281 118.070 109.305  0.00  0.00    +0.039 C 
ATOM     18  C   UNL     1     122.602 122.525 114.761  0.00  0.00    +0.164 C 
ATOM     19  C   UNL     1     121.658 123.676 114.354  0.00  0.00    +0.086 C 
ATOM     20  C   UNL     1     126.435 122.434 112.785  0.00  0.00    +0.308 C 
ATOM     21  C   UNL     1     122.266 124.727 113.360  0.00  0.00    +0.132 C 
ATOM     22  C   UNL     1     121.093 124.416 115.583  0.00  0.00    +0.018 C 
ATOM     23  C   UNL     1     123.394 124.108 112.534  0.00  0.00    +0.032 C 
ATOM     24  C   UNL     1     126.239 124.991 113.382  0.00  0.00    +0.176 C 
ATOM     25  C   UNL     1     124.338 124.806 111.585  0.00  0.00    +0.006 C 
ATOM     26  C   UNL     1     125.390 125.653 112.268  0.00  0.00    +0.045 C 
ENDROOT
BRANCH  24  27
ATOM     27  C   UNL     1     125.641 125.095 114.789  0.00  0.00    +0.041 C 
ATOM     28  C   UNL     1     126.658 124.734 115.859  0.00  0.00    +0.007 C 
ENDBRANCH  24  27
BRANCH  10  29
ATOM     29  O   UNL     1     121.088 119.909 108.638  0.00  0.00    -0.345 OA
BRANCH  29  31
ATOM     30  O   UNL     1     122.554 120.399 106.959  0.00  0.00    -0.343 OA
ATOM     31  C   UNL     1     121.196 120.117 107.251  0.00  0.00    +0.282 C 
ATOM     32  C   UNL     1     120.104 120.989 106.598  0.00  0.00    +0.205 C 
ATOM     33  C   UNL     1     120.571 122.440 106.449  0.00  0.00    +0.179 C 
ATOM     34  C   UNL     1     122.996 121.747 106.970  0.00  0.00    +0.150 C 
ATOM     35  C   UNL     1     122.075 122.626 106.107  0.00  0.00    +0.177 C 
ATOM     36  C   UNL     1     123.393 122.267 108.348  0.00  0.00    +0.041 C 
BRANCH  32  37
ATOM     37  O   UNL     1     119.378 120.430 105.482  0.00  0.00    -0.372 OA
ATOM     38  C   UNL     1     120.032 119.672 104.483  0.00  0.00    +0.194 C 
ENDBRANCH  32  37
BRANCH  33  39
ATOM     39  O   UNL     1     119.694 123.193 105.603  0.00  0.00    -0.386 OA
ATOM     40  H   UNL     1     119.756 124.129 105.879  0.00  0.00    +0.210 HD
ENDBRANCH  33  39
BRANCH  35  41
ATOM     41  O   UNL     1     122.296 122.461 104.688  0.00  0.00    -0.375 OA
ATOM     42  C   UNL     1     123.618 122.605 104.182  0.00  0.00    +0.194 C 
ENDBRANCH  35  41
ENDBRANCH  29  31
ENDBRANCH  10  29
BRANCH  21  43
ATOM     43  O   UNL     1     121.126 125.261 112.688  0.00  0.00    -0.347 OA
BRANCH  43  45
ATOM     44  O   UNL     1     120.370 123.464 111.475  0.00  0.00    -0.347 OA
ATOM     45  C   UNL     1     120.001 124.443 112.439  0.00  0.00    +0.251 C 
ATOM     46  C   UNL     1     118.723 125.255 112.129  0.00  0.00    +0.063 C 
ATOM     47  C   UNL     1     118.186 125.257 110.715  0.00  0.00    +0.026 C 
ATOM     48  C   UNL     1     118.606 124.043 109.904  0.00  0.00    +0.085 C 
ATOM     49  C   UNL     1     120.127 123.813 110.120  0.00  0.00    +0.135 C 
ATOM     50  C   UNL     1     121.020 124.986 109.693  0.00  0.00    +0.039 C 
BRANCH  48  51
ATOM     51  N   UNL     1     117.692 122.888 110.135  0.00  0.00    -0.303 NA
ATOM     52  C   UNL     1     116.293 123.303 110.093  0.00  0.00    +0.105 C 
ATOM     53  C   UNL     1     117.870 121.700 109.302  0.00  0.00    +0.105 C 
ENDBRANCH  48  51
ENDBRANCH  43  45
ENDBRANCH  21  43
TORSDOF 9
ENDMDL
MODEL 12
REMARK VINA RESULT:      -7.3      3.437      6.461
REMARK  Name = 
REMARK  18 active torsions:
REMARK  status: ('A' for Active; 'I' for Inactive)
REMARK    1  A    between atoms: O_1  and  C_18
REMARK    2  A    between atoms: O_1  and  C_27
REMARK    3  A    between atoms: O_5  and  C_30
REMARK    4  A    between atoms: O_5  and  C_44
REMARK    5  A    between atoms: O_6  and  C_31
REMARK    6  A    between atoms: O_6  and  C_41
REMARK    7  A    between atoms: O_8  and  C_32
REMARK    8  A    between atoms: O_9  and  C_35
REMARK    9  A    between atoms: O_9  and  C_49
REMARK   10  A    between atoms: N_11  and  C_46
REMARK   11  A    between atoms: N_11  and  C_51
REMARK   12  A    between atoms: N_11  and  C_52
REMARK   13  A    between atoms: C_20  and  C_25
REMARK   14  A    between atoms: C_28  and  C_33
REMARK   15  A    between atoms: C_34  and  C_40
REMARK   16  A    between atoms: C_37  and  C_42
REMARK   17  A    between atoms: C_42  and  C_48
REMARK   18  A    between atoms: C_47  and  C_50
REMARK                            x       y       z     vdW  Elec       q    Type
REMARK                         _______ _______ _______ _____ _____    ______ ____
ROOT
ATOM      1  O   UNL     1     124.242 121.213 107.475  0.00  0.00    -0.292 OA
ATOM      2  O   UNL     1     119.971 121.608 105.323  0.00  0.00    -0.461 OA
ATOM      3  O   UNL     1     119.006 119.880 106.309  0.00  0.00    -0.251 OA
ATOM      4  C   UNL     1     120.640 119.179 111.316  0.00  0.00    +0.006 C 
ATOM      5  C   UNL     1     121.715 118.744 110.327  0.00  0.00    +0.023 C 
ATOM      6  C   UNL     1     119.311 118.381 111.212  0.00  0.00    +0.021 C 
ATOM      7  C   UNL     1     121.164 118.535 108.881  0.00  0.00    +0.027 C 
ATOM      8  C   UNL     1     121.037 119.055 112.811  0.00  0.00    +0.036 C 
ATOM      9  C   UNL     1     119.205 117.633 112.538  0.00  0.00    +0.039 C 
ATOM     10  C   UNL     1     119.688 118.748 113.473  0.00  0.00    +0.122 C 
ATOM     11  C   UNL     1     121.328 119.940 108.224  0.00  0.00    +0.040 C 
ATOM     12  C   UNL     1     119.010 117.679 109.934  0.00  0.00    -0.073 C 
ATOM     13  C   UNL     1     122.752 119.819 110.125  0.00  0.00    -0.015 C 
ATOM     14  C   UNL     1     119.800 117.882 108.849  0.00  0.00    -0.023 C 
ATOM     15  C   UNL     1     122.584 120.443 108.949  0.00  0.00    -0.004 C 
ATOM     16  C   UNL     1     121.342 120.019 106.671  0.00  0.00    +0.129 C 
ATOM     17  C   UNL     1     117.686 116.972 109.914  0.00  0.00    +0.039 C 
ATOM     18  C   UNL     1     123.536 121.489 108.442  0.00  0.00    +0.164 C 
ATOM     19  C   UNL     1     123.554 122.884 109.102  0.00  0.00    +0.086 C 
ATOM     20  C   UNL     1     120.023 120.535 106.129  0.00  0.00    +0.308 C 
ATOM     21  C   UNL     1     122.342 123.814 108.745  0.00  0.00    +0.132 C 
ATOM     22  C   UNL     1     124.868 123.638 108.811  0.00  0.00    +0.018 C 
ATOM     23  C   UNL     1     121.120 122.987 108.341  0.00  0.00    +0.032 C 
ATOM     24  C   UNL     1     120.517 122.986 105.304  0.00  0.00    +0.176 C 
ATOM     25  C   UNL     1     119.810 123.483 107.780  0.00  0.00    +0.006 C 
ATOM     26  C   UNL     1     119.889 123.949 106.342  0.00  0.00    +0.045 C 
ENDROOT
BRANCH  24  27
ATOM     27  C   UNL     1     122.034 123.124 105.139  0.00  0.00    +0.041 C 
ATOM     28  C   UNL     1     122.451 123.045 103.680  0.00  0.00    +0.007 C 
ENDBRANCH  24  27
BRANCH  10  29
ATOM     29  O   UNL     1     118.937 119.932 113.243  0.00  0.00    -0.345 OA
BRANCH  29  31
ATOM     30  O   UNL     1     116.951 119.912 114.366  0.00  0.00    -0.343 OA
ATOM     31  C   UNL     1     118.156 120.634 114.179  0.00  0.00    +0.282 C 
ATOM     32  C   UNL     1     118.080 122.165 114.003  0.00  0.00    +0.205 C 
ATOM     33  C   UNL     1     116.816 122.572 113.240  0.00  0.00    +0.179 C 
ATOM     34  C   UNL     1     115.833 120.210 113.545  0.00  0.00    +0.150 C 
ATOM     35  C   UNL     1     115.550 121.723 113.543  0.00  0.00    +0.177 C 
ATOM     36  C   UNL     1     115.827 119.481 112.205  0.00  0.00    +0.041 C 
BRANCH  32  37
ATOM     37  O   UNL     1     118.441 122.988 115.133  0.00  0.00    -0.372 OA
ATOM     38  C   UNL     1     119.177 122.464 116.222  0.00  0.00    +0.194 C 
ENDBRANCH  32  37
BRANCH  33  39
ATOM     39  O   UNL     1     116.588 123.984 113.310  0.00  0.00    -0.386 OA
ATOM     40  H   UNL     1     115.986 124.144 114.064  0.00  0.00    +0.210 HD
ENDBRANCH  33  39
BRANCH  35  41
ATOM     41  O   UNL     1     114.909 122.183 114.753  0.00  0.00    -0.375 OA
ATOM     42  C   UNL     1     113.873 121.390 115.321  0.00  0.00    +0.194 C 
ENDBRANCH  35  41
ENDBRANCH  29  31
ENDBRANCH  10  29
BRANCH  21  43
ATOM     43  O   UNL     1     122.246 124.695 109.864  0.00  0.00    -0.347 OA
BRANCH  43  45
ATOM     44  O   UNL     1     120.787 126.162 110.859  0.00  0.00    -0.347 OA
ATOM     45  C   UNL     1     121.038 124.789 110.591  0.00  0.00    +0.251 C 
ATOM     46  C   UNL     1     120.994 123.838 111.809  0.00  0.00    +0.063 C 
ATOM     47  C   UNL     1     121.086 124.430 113.199  0.00  0.00    +0.026 C 
ATOM     48  C   UNL     1     120.644 125.882 113.271  0.00  0.00    +0.085 C 
ATOM     49  C   UNL     1     121.297 126.652 112.091  0.00  0.00    +0.135 C 
ATOM     50  C   UNL     1     122.833 126.636 112.088  0.00  0.00    +0.039 C 
BRANCH  48  51
ATOM     51  N   UNL     1     119.166 125.995 113.437  0.00  0.00    -0.303 NA
ATOM     52  C   UNL     1     118.815 126.387 114.799  0.00  0.00    +0.105 C 
ATOM     53  C   UNL     1     118.435 126.832 112.487  0.00  0.00    +0.105 C 
ENDBRANCH  48  51
ENDBRANCH  43  45
ENDBRANCH  21  43
TORSDOF 9
ENDMDL
MODEL 13
REMARK VINA RESULT:      -7.2     15.576     20.181
REMARK  Name = 
REMARK  18 active torsions:
REMARK  status: ('A' for Active; 'I' for Inactive)
REMARK    1  A    between atoms: O_1  and  C_18
REMARK    2  A    between atoms: O_1  and  C_27
REMARK    3  A    between atoms: O_5  and  C_30
REMARK    4  A    between atoms: O_5  and  C_44
REMARK    5  A    between atoms: O_6  and  C_31
REMARK    6  A    between atoms: O_6  and  C_41
REMARK    7  A    between atoms: O_8  and  C_32
REMARK    8  A    between atoms: O_9  and  C_35
REMARK    9  A    between atoms: O_9  and  C_49
REMARK   10  A    between atoms: N_11  and  C_46
REMARK   11  A    between atoms: N_11  and  C_51
REMARK   12  A    between atoms: N_11  and  C_52
REMARK   13  A    between atoms: C_20  and  C_25
REMARK   14  A    between atoms: C_28  and  C_33
REMARK   15  A    between atoms: C_34  and  C_40
REMARK   16  A    between atoms: C_37  and  C_42
REMARK   17  A    between atoms: C_42  and  C_48
REMARK   18  A    between atoms: C_47  and  C_50
REMARK                            x       y       z     vdW  Elec       q    Type
REMARK                         _______ _______ _______ _____ _____    ______ ____
ROOT
ATOM      1  O   UNL     1     123.531 114.602 128.471  0.00  0.00    -0.292 OA
ATOM      2  O   UNL     1     119.178 115.768 126.822  0.00  0.00    -0.461 OA
ATOM      3  O   UNL     1     119.201 114.460 125.038  0.00  0.00    -0.251 OA
ATOM      4  C   UNL     1     121.816 109.907 125.846  0.00  0.00    +0.006 C 
ATOM      5  C   UNL     1     122.787 111.075 125.709  0.00  0.00    +0.023 C 
ATOM      6  C   UNL     1     120.941 109.649 124.588  0.00  0.00    +0.021 C 
ATOM      7  C   UNL     1     122.130 112.340 125.073  0.00  0.00    +0.027 C 
ATOM      8  C   UNL     1     122.482 108.534 126.129  0.00  0.00    +0.036 C 
ATOM      9  C   UNL     1     121.386 108.279 124.083  0.00  0.00    +0.039 C 
ATOM     10  C   UNL     1     121.517 107.565 125.433  0.00  0.00    +0.122 C 
ATOM     11  C   UNL     1     121.582 113.123 126.304  0.00  0.00    +0.040 C 
ATOM     12  C   UNL     1     120.742 110.769 123.628  0.00  0.00    -0.073 C 
ATOM     13  C   UNL     1     123.234 111.586 127.056  0.00  0.00    -0.015 C 
ATOM     14  C   UNL     1     121.176 112.016 123.944  0.00  0.00    -0.023 C 
ATOM     15  C   UNL     1     122.623 112.739 127.366  0.00  0.00    -0.004 C 
ATOM     16  C   UNL     1     121.294 114.642 126.131  0.00  0.00    +0.129 C 
ATOM     17  C   UNL     1     119.848 110.438 122.470  0.00  0.00    +0.039 C 
ATOM     18  C   UNL     1     122.953 113.525 128.603  0.00  0.00    +0.164 C 
ATOM     19  C   UNL     1     122.506 112.995 129.982  0.00  0.00    +0.086 C 
ATOM     20  C   UNL     1     119.808 114.913 125.998  0.00  0.00    +0.308 C 
ATOM     21  C   UNL     1     120.975 113.143 130.297  0.00  0.00    +0.132 C 
ATOM     22  C   UNL     1     123.317 113.630 131.130  0.00  0.00    +0.018 C 
ATOM     23  C   UNL     1     120.156 113.198 129.006  0.00  0.00    +0.032 C 
ATOM     24  C   UNL     1     119.092 116.015 128.281  0.00  0.00    +0.176 C 
ATOM     25  C   UNL     1     118.682 113.489 128.856  0.00  0.00    +0.006 C 
ATOM     26  C   UNL     1     118.312 114.940 129.077  0.00  0.00    +0.045 C 
ENDROOT
BRANCH  24  27
ATOM     27  C   UNL     1     120.363 116.524 128.969  0.00  0.00    +0.041 C 
ATOM     28  C   UNL     1     120.955 117.720 128.242  0.00  0.00    +0.007 C 
ENDBRANCH  24  27
BRANCH  10  29
ATOM     29  O   UNL     1     120.316 107.711 126.179  0.00  0.00    -0.345 OA
BRANCH  29  31
ATOM     30  O   UNL     1     118.408 106.680 125.469  0.00  0.00    -0.343 OA
ATOM     31  C   UNL     1     119.387 106.703 126.494  0.00  0.00    +0.282 C 
ATOM     32  C   UNL     1     118.921 106.632 127.962  0.00  0.00    +0.205 C 
ATOM     33  C   UNL     1     117.589 107.365 128.156  0.00  0.00    +0.179 C 
ATOM     34  C   UNL     1     117.247 107.483 125.606  0.00  0.00    +0.150 C 
ATOM     35  C   UNL     1     116.586 107.250 126.976  0.00  0.00    +0.177 C 
ATOM     36  C   UNL     1     117.419 108.922 125.132  0.00  0.00    +0.041 C 
BRANCH  32  37
ATOM     37  O   UNL     1     119.065 105.371 128.651  0.00  0.00    -0.372 OA
ATOM     38  C   UNL     1     118.643 104.156 128.061  0.00  0.00    +0.194 C 
ENDBRANCH  32  37
BRANCH  33  39
ATOM     39  O   UNL     1     117.007 107.075 129.432  0.00  0.00    -0.386 OA
ATOM     40  H   UNL     1     116.911 106.105 129.494  0.00  0.00    +0.210 HD
ENDBRANCH  33  39
BRANCH  35  41
ATOM     41  O   UNL     1     115.855 106.005 127.051  0.00  0.00    -0.375 OA
ATOM     42  C   UNL     1     114.928 105.695 126.018  0.00  0.00    +0.194 C 
ENDBRANCH  35  41
ENDBRANCH  29  31
ENDBRANCH  10  29
BRANCH  21  43
ATOM     43  O   UNL     1     120.718 112.102 131.239  0.00  0.00    -0.347 OA
BRANCH  43  45
ATOM     44  O   UNL     1     119.707 111.376 133.168  0.00  0.00    -0.347 OA
ATOM     45  C   UNL     1     120.492 112.415 132.599  0.00  0.00    +0.251 C 
ATOM     46  C   UNL     1     119.969 113.855 132.805  0.00  0.00    +0.063 C 
ATOM     47  C   UNL     1     118.529 114.054 133.223  0.00  0.00    +0.026 C 
ATOM     48  C   UNL     1     117.931 112.851 133.932  0.00  0.00    +0.085 C 
ATOM     49  C   UNL     1     118.302 111.574 133.129  0.00  0.00    +0.135 C 
ATOM     50  C   UNL     1     117.791 111.558 131.681  0.00  0.00    +0.039 C 
BRANCH  48  51
ATOM     51  N   UNL     1     118.243 112.865 135.390  0.00  0.00    -0.303 NA
ATOM     52  C   UNL     1     117.694 114.052 136.038  0.00  0.00    +0.105 C 
ATOM     53  C   UNL     1     117.896 111.680 136.174  0.00  0.00    +0.105 C 
ENDBRANCH  48  51
ENDBRANCH  43  45
ENDBRANCH  21  43
TORSDOF 9
ENDMDL
MODEL 14
REMARK VINA RESULT:      -7.1      2.746      6.121
REMARK  Name = 
REMARK  18 active torsions:
REMARK  status: ('A' for Active; 'I' for Inactive)
REMARK    1  A    between atoms: O_1  and  C_18
REMARK    2  A    between atoms: O_1  and  C_27
REMARK    3  A    between atoms: O_5  and  C_30
REMARK    4  A    between atoms: O_5  and  C_44
REMARK    5  A    between atoms: O_6  and  C_31
REMARK    6  A    between atoms: O_6  and  C_41
REMARK    7  A    between atoms: O_8  and  C_32
REMARK    8  A    between atoms: O_9  and  C_35
REMARK    9  A    between atoms: O_9  and  C_49
REMARK   10  A    between atoms: N_11  and  C_46
REMARK   11  A    between atoms: N_11  and  C_51
REMARK   12  A    between atoms: N_11  and  C_52
REMARK   13  A    between atoms: C_20  and  C_25
REMARK   14  A    between atoms: C_28  and  C_33
REMARK   15  A    between atoms: C_34  and  C_40
REMARK   16  A    between atoms: C_37  and  C_42
REMARK   17  A    between atoms: C_42  and  C_48
REMARK   18  A    between atoms: C_47  and  C_50
REMARK                            x       y       z     vdW  Elec       q    Type
REMARK                         _______ _______ _______ _____ _____    ______ ____
ROOT
ATOM      1  O   UNL     1     122.250 124.096 107.436  0.00  0.00    -0.292 OA
ATOM      2  O   UNL     1     120.576 120.138 105.300  0.00  0.00    -0.461 OA
ATOM      3  O   UNL     1     121.900 118.692 106.325  0.00  0.00    -0.251 OA
ATOM      4  C   UNL     1     122.993 120.082 111.335  0.00  0.00    +0.006 C 
ATOM      5  C   UNL     1     123.759 120.956 110.349  0.00  0.00    +0.023 C 
ATOM      6  C   UNL     1     123.338 118.569 111.254  0.00  0.00    +0.021 C 
ATOM      7  C   UNL     1     123.809 120.351 108.911  0.00  0.00    +0.027 C 
ATOM      8  C   UNL     1     123.211 120.438 112.830  0.00  0.00    +0.036 C 
ATOM      9  C   UNL     1     123.993 118.251 112.595  0.00  0.00    +0.039 C 
ATOM     10  C   UNL     1     123.070 119.068 113.505  0.00  0.00    +0.122 C 
ATOM     11  C   UNL     1     122.537 120.938 108.226  0.00  0.00    +0.040 C 
ATOM     12  C   UNL     1     123.932 118.050 109.992  0.00  0.00    -0.073 C 
ATOM     13  C   UNL     1     123.065 122.275 110.121  0.00  0.00    -0.015 C 
ATOM     14  C   UNL     1     124.004 118.851 108.898  0.00  0.00    -0.023 C 
ATOM     15  C   UNL     1     122.440 122.297 108.934  0.00  0.00    -0.004 C 
ATOM     16  C   UNL     1     122.492 120.959 106.671  0.00  0.00    +0.129 C 
ATOM     17  C   UNL     1     124.190 116.571 109.993  0.00  0.00    +0.039 C 
ATOM     18  C   UNL     1     121.752 123.522 108.402  0.00  0.00    +0.164 C 
ATOM     19  C   UNL     1     120.421 123.983 109.035  0.00  0.00    +0.086 C 
ATOM     20  C   UNL     1     121.598 119.861 106.127  0.00  0.00    +0.308 C 
ATOM     21  C   UNL     1     119.165 123.117 108.666  0.00  0.00    +0.132 C 
ATOM     22  C   UNL     1     120.120 125.463 108.722  0.00  0.00    +0.018 C 
ATOM     23  C   UNL     1     119.576 121.694 108.286  0.00  0.00    +0.032 C 
ATOM     24  C   UNL     1     119.438 121.086 105.252  0.00  0.00    +0.176 C 
ATOM     25  C   UNL     1     118.704 120.598 107.722  0.00  0.00    +0.006 C 
ATOM     26  C   UNL     1     118.310 120.802 106.275  0.00  0.00    +0.045 C 
ENDROOT
BRANCH  24  27
ATOM     27  C   UNL     1     119.784 122.569 105.076  0.00  0.00    +0.041 C 
ATOM     28  C   UNL     1     119.154 123.148 103.820  0.00  0.00    +0.007 C 
ENDBRANCH  24  27
BRANCH  10  29
ATOM     29  O   UNL     1     121.714 118.722 113.257  0.00  0.00    -0.345 OA
BRANCH  29  31
ATOM     30  O   UNL     1     120.982 116.643 113.850  0.00  0.00    -0.343 OA
ATOM     31  C   UNL     1     120.846 118.029 114.120  0.00  0.00    +0.282 C 
ATOM     32  C   UNL     1     119.428 118.613 114.286  0.00  0.00    +0.205 C 
ATOM     33  C   UNL     1     118.429 117.910 113.362  0.00  0.00    +0.179 C 
ATOM     34  C   UNL     1     120.137 116.044 112.881  0.00  0.00    +0.150 C 
ATOM     35  C   UNL     1     118.663 116.388 113.159  0.00  0.00    +0.177 C 
ATOM     36  C   UNL     1     120.641 116.167 111.446  0.00  0.00    +0.041 C 
BRANCH  32  37
ATOM     37  O   UNL     1     118.974 118.898 115.626  0.00  0.00    -0.372 OA
ATOM     38  C   UNL     1     119.521 118.231 116.748  0.00  0.00    +0.194 C 
ENDBRANCH  32  37
BRANCH  33  39
ATOM     39  O   UNL     1     117.076 118.241 113.698  0.00  0.00    -0.386 OA
ATOM     40  H   UNL     1     117.020 119.215 113.754  0.00  0.00    +0.210 HD
ENDBRANCH  33  39
BRANCH  35  41
ATOM     41  O   UNL     1     118.101 115.637 114.259  0.00  0.00    -0.375 OA
ATOM     42  C   UNL     1     118.541 114.300 114.467  0.00  0.00    +0.194 C 
ENDBRANCH  35  41
ENDBRANCH  29  31
ENDBRANCH  10  29
BRANCH  21  43
ATOM     43  O   UNL     1     118.280 123.313 109.769  0.00  0.00    -0.347 OA
BRANCH  43  45
ATOM     44  O   UNL     1     117.174 122.380 111.551  0.00  0.00    -0.347 OA
ATOM     45  C   UNL     1     118.453 122.570 110.958  0.00  0.00    +0.251 C 
ATOM     46  C   UNL     1     119.550 123.152 111.877  0.00  0.00    +0.063 C 
ATOM     47  C   UNL     1     119.138 123.831 113.165  0.00  0.00    +0.026 C 
ATOM     48  C   UNL     1     117.784 123.377 113.685  0.00  0.00    +0.085 C 
ATOM     49  C   UNL     1     116.783 123.365 112.497  0.00  0.00    +0.135 C 
ATOM     50  C   UNL     1     116.583 124.725 111.814  0.00  0.00    +0.039 C 
BRANCH  48  51
ATOM     51  N   UNL     1     117.902 122.136 114.503  0.00  0.00    -0.303 NA
ATOM     52  C   UNL     1     118.820 122.324 115.622  0.00  0.00    +0.105 C 
ATOM     53  C   UNL     1     116.668 121.518 114.987  0.00  0.00    +0.105 C 
ENDBRANCH  48  51
ENDBRANCH  43  45
ENDBRANCH  21  43
TORSDOF 9
ENDMDL
MODEL 15
REMARK VINA RESULT:      -7.1     61.905     65.421
REMARK  Name = 
REMARK  18 active torsions:
REMARK  status: ('A' for Active; 'I' for Inactive)
REMARK    1  A    between atoms: O_1  and  C_18
REMARK    2  A    between atoms: O_1  and  C_27
REMARK    3  A    between atoms: O_5  and  C_30
REMARK    4  A    between atoms: O_5  and  C_44
REMARK    5  A    between atoms: O_6  and  C_31
REMARK    6  A    between atoms: O_6  and  C_41
REMARK    7  A    between atoms: O_8  and  C_32
REMARK    8  A    between atoms: O_9  and  C_35
REMARK    9  A    between atoms: O_9  and  C_49
REMARK   10  A    between atoms: N_11  and  C_46
REMARK   11  A    between atoms: N_11  and  C_51
REMARK   12  A    between atoms: N_11  and  C_52
REMARK   13  A    between atoms: C_20  and  C_25
REMARK   14  A    between atoms: C_28  and  C_33
REMARK   15  A    between atoms: C_34  and  C_40
REMARK   16  A    between atoms: C_37  and  C_42
REMARK   17  A    between atoms: C_42  and  C_48
REMARK   18  A    between atoms: C_47  and  C_50
REMARK                            x       y       z     vdW  Elec       q    Type
REMARK                         _______ _______ _______ _____ _____    ______ ____
ROOT
ATOM      1  O   UNL     1     133.766 131.418  45.981  0.00  0.00    -0.292 OA
ATOM      2  O   UNL     1     137.569 134.344  46.074  0.00  0.00    -0.461 OA
ATOM      3  O   UNL     1     137.203 135.206  48.078  0.00  0.00    -0.251 OA
ATOM      4  C   UNL     1     135.060 131.722  51.468  0.00  0.00    +0.006 C 
ATOM      5  C   UNL     1     134.030 132.193  50.448  0.00  0.00    +0.023 C 
ATOM      6  C   UNL     1     135.637 132.852  52.365  0.00  0.00    +0.021 C 
ATOM      7  C   UNL     1     134.463 133.493  49.701  0.00  0.00    +0.027 C 
ATOM      8  C   UNL     1     134.543 130.665  52.480  0.00  0.00    +0.036 C 
ATOM      9  C   UNL     1     135.155 132.511  53.772  0.00  0.00    +0.039 C 
ATOM     10  C   UNL     1     135.369 130.994  53.730  0.00  0.00    +0.122 C 
ATOM     11  C   UNL     1     135.239 132.957  48.459  0.00  0.00    +0.040 C 
ATOM     12  C   UNL     1     135.559 134.253  51.869  0.00  0.00    -0.073 C 
ATOM     13  C   UNL     1     133.877 131.207  49.317  0.00  0.00    -0.015 C 
ATOM     14  C   UNL     1     135.150 134.499  50.598  0.00  0.00    -0.023 C 
ATOM     15  C   UNL     1     134.487 131.643  48.205  0.00  0.00    -0.004 C 
ATOM     16  C   UNL     1     135.407 133.909  47.240  0.00  0.00    +0.129 C 
ATOM     17  C   UNL     1     136.181 135.268  52.784  0.00  0.00    +0.039 C 
ATOM     18  C   UNL     1     134.410 130.909  46.896  0.00  0.00    +0.164 C 
ATOM     19  C   UNL     1     135.184 129.585  46.720  0.00  0.00    +0.086 C 
ATOM     20  C   UNL     1     136.810 134.482  47.173  0.00  0.00    +0.308 C 
ATOM     21  C   UNL     1     136.737 129.731  46.547  0.00  0.00    +0.132 C 
ATOM     22  C   UNL     1     134.625 128.747  45.552  0.00  0.00    +0.018 C 
ATOM     23  C   UNL     1     137.237 131.029  47.183  0.00  0.00    +0.032 C 
ATOM     24  C   UNL     1     137.973 133.252  45.157  0.00  0.00    +0.176 C 
ATOM     25  C   UNL     1     138.623 131.624  47.107  0.00  0.00    +0.006 C 
ATOM     26  C   UNL     1     138.964 132.227  45.762  0.00  0.00    +0.045 C 
ENDROOT
BRANCH  24  27
ATOM     27  C   UNL     1     136.870 132.638  44.288  0.00  0.00    +0.041 C 
ATOM     28  C   UNL     1     137.444 131.887  43.098  0.00  0.00    +0.007 C 
ENDBRANCH  24  27
BRANCH  10  29
ATOM     29  O   UNL     1     136.699 130.702  53.326  0.00  0.00    -0.345 OA
BRANCH  29  31
ATOM     30  O   UNL     1     138.409 129.304  52.751  0.00  0.00    -0.343 OA
ATOM     31  C   UNL     1     137.516 129.657  53.794  0.00  0.00    +0.282 C 
ATOM     32  C   UNL     1     136.812 128.529  54.576  0.00  0.00    +0.205 C 
ATOM     33  C   UNL     1     136.495 127.339  53.665  0.00  0.00    +0.179 C 
ATOM     34  C   UNL     1     138.029 128.295  51.829  0.00  0.00    +0.150 C 
ATOM     35  C   UNL     1     137.558 127.033  52.573  0.00  0.00    +0.177 C 
ATOM     36  C   UNL     1     137.183 128.795  50.663  0.00  0.00    +0.041 C 
BRANCH  32  37
ATOM     37  O   UNL     1     137.311 128.214  55.893  0.00  0.00    -0.372 OA
ATOM     38  C   UNL     1     138.699 128.137  56.157  0.00  0.00    +0.194 C 
ENDBRANCH  32  37
BRANCH  33  39
ATOM     39  O   UNL     1     136.102 126.186  54.418  0.00  0.00    -0.386 OA
ATOM     40  H   UNL     1     136.788 125.503  54.285  0.00  0.00    +0.210 HD
ENDBRANCH  33  39
BRANCH  35  41
ATOM     41  O   UNL     1     138.645 126.258  53.126  0.00  0.00    -0.375 OA
ATOM     42  C   UNL     1     139.818 126.073  52.342  0.00  0.00    +0.194 C 
ENDBRANCH  35  41
ENDBRANCH  29  31
ENDBRANCH  10  29
BRANCH  21  43
ATOM     43  O   UNL     1     137.251 128.485  47.015  0.00  0.00    -0.347 OA
BRANCH  43  45
ATOM     44  O   UNL     1     138.823 126.812  46.977  0.00  0.00    -0.347 OA
ATOM     45  C   UNL     1     138.042 127.679  46.165  0.00  0.00    +0.251 C 
ATOM     46  C   UNL     1     138.813 128.498  45.106  0.00  0.00    +0.063 C 
ATOM     47  C   UNL     1     140.313 128.639  45.244  0.00  0.00    +0.026 C 
ATOM     48  C   UNL     1     140.956 127.523  46.050  0.00  0.00    +0.085 C 
ATOM     49  C   UNL     1     140.110 127.295  47.333  0.00  0.00    +0.135 C 
ATOM     50  C   UNL     1     139.995 128.521  48.250  0.00  0.00    +0.039 C 
BRANCH  48  51
ATOM     51  N   UNL     1     141.254 126.336  45.198  0.00  0.00    -0.303 NA
ATOM     52  C   UNL     1     141.987 126.718  43.995  0.00  0.00    +0.105 C 
ATOM     53  C   UNL     1     141.916 125.194  45.827  0.00  0.00    +0.105 C 
ENDBRANCH  48  51
ENDBRANCH  43  45
ENDBRANCH  21  43
TORSDOF 9
ENDMDL
MODEL 16
REMARK VINA RESULT:      -7.1     35.039     39.326
REMARK  Name = 
REMARK  18 active torsions:
REMARK  status: ('A' for Active; 'I' for Inactive)
REMARK    1  A    between atoms: O_1  and  C_18
REMARK    2  A    between atoms: O_1  and  C_27
REMARK    3  A    between atoms: O_5  and  C_30
REMARK    4  A    between atoms: O_5  and  C_44
REMARK    5  A    between atoms: O_6  and  C_31
REMARK    6  A    between atoms: O_6  and  C_41
REMARK    7  A    between atoms: O_8  and  C_32
REMARK    8  A    between atoms: O_9  and  C_35
REMARK    9  A    between atoms: O_9  and  C_49
REMARK   10  A    between atoms: N_11  and  C_46
REMARK   11  A    between atoms: N_11  and  C_51
REMARK   12  A    between atoms: N_11  and  C_52
REMARK   13  A    between atoms: C_20  and  C_25
REMARK   14  A    between atoms: C_28  and  C_33
REMARK   15  A    between atoms: C_34  and  C_40
REMARK   16  A    between atoms: C_37  and  C_42
REMARK   17  A    between atoms: C_42  and  C_48
REMARK   18  A    between atoms: C_47  and  C_50
REMARK                            x       y       z     vdW  Elec       q    Type
REMARK                         _______ _______ _______ _____ _____    ______ ____
ROOT
ATOM      1  O   UNL     1     104.675  98.035 133.769  0.00  0.00    -0.292 OA
ATOM      2  O   UNL     1     104.191 102.780 134.293  0.00  0.00    -0.461 OA
ATOM      3  O   UNL     1     102.006 102.872 133.957  0.00  0.00    -0.251 OA
ATOM      4  C   UNL     1      99.447  98.605 135.821  0.00  0.00    +0.006 C 
ATOM      5  C   UNL     1     100.207  98.268 134.543  0.00  0.00    +0.023 C 
ATOM      6  C   UNL     1      98.347  99.688 135.647  0.00  0.00    +0.021 C 
ATOM      7  C   UNL     1     100.629  99.535 133.734  0.00  0.00    +0.027 C 
ATOM      8  C   UNL     1      98.699  97.410 136.471  0.00  0.00    +0.036 C 
ATOM      9  C   UNL     1      97.037  98.956 135.922  0.00  0.00    +0.039 C 
ATOM     10  C   UNL     1      97.492  98.105 137.114  0.00  0.00    +0.122 C 
ATOM     11  C   UNL     1     102.036  99.882 134.311  0.00  0.00    +0.040 C 
ATOM     12  C   UNL     1      98.453 100.619 134.490  0.00  0.00    -0.073 C 
ATOM     13  C   UNL     1     101.535  97.619 134.841  0.00  0.00    -0.015 C 
ATOM     14  C   UNL     1      99.571 100.617 133.720  0.00  0.00    -0.023 C 
ATOM     15  C   UNL     1     102.549  98.478 134.661  0.00  0.00    -0.004 C 
ATOM     16  C   UNL     1     102.976 100.772 133.448  0.00  0.00    +0.129 C 
ATOM     17  C   UNL     1      97.370 101.656 134.431  0.00  0.00    +0.039 C 
ATOM     18  C   UNL     1     103.989  98.072 134.788  0.00  0.00    +0.164 C 
ATOM     19  C   UNL     1     104.576  97.778 136.185  0.00  0.00    +0.086 C 
ATOM     20  C   UNL     1     103.025 102.195 133.969  0.00  0.00    +0.308 C 
ATOM     21  C   UNL     1     104.853  99.039 137.078  0.00  0.00    +0.132 C 
ATOM     22  C   UNL     1     105.863  96.931 136.099  0.00  0.00    +0.018 C 
ATOM     23  C   UNL     1     103.953 100.205 136.669  0.00  0.00    +0.032 C 
ATOM     24  C   UNL     1     105.394 102.447 135.092  0.00  0.00    +0.176 C 
ATOM     25  C   UNL     1     104.004 101.631 137.161  0.00  0.00    +0.006 C 
ATOM     26  C   UNL     1     105.173 102.430 136.625  0.00  0.00    +0.045 C 
ENDROOT
BRANCH  24  27
ATOM     27  C   UNL     1     106.282 101.317 134.561  0.00  0.00    +0.041 C 
ATOM     28  C   UNL     1     107.679 101.812 134.223  0.00  0.00    +0.007 C 
ENDBRANCH  24  27
BRANCH  10  29
ATOM     29  O   UNL     1      98.083  98.934 138.104  0.00  0.00    -0.345 OA
BRANCH  29  31
ATOM     30  O   UNL     1      98.741  99.827 140.099  0.00  0.00    -0.343 OA
ATOM     31  C   UNL     1      97.995  98.781 139.499  0.00  0.00    +0.282 C 
ATOM     32  C   UNL     1      98.161  97.349 140.047  0.00  0.00    +0.205 C 
ATOM     33  C   UNL     1      99.599  97.097 140.511  0.00  0.00    +0.179 C 
ATOM     34  C   UNL     1     100.114  99.618 140.387  0.00  0.00    +0.150 C 
ATOM     35  C   UNL     1     100.309  98.310 141.174  0.00  0.00    +0.177 C 
ATOM     36  C   UNL     1     101.051  99.892 139.215  0.00  0.00    +0.041 C 
BRANCH  32  37
ATOM     37  O   UNL     1      97.113  96.829 140.894  0.00  0.00    -0.372 OA
ATOM     38  C   UNL     1      96.232  95.819 140.441  0.00  0.00    +0.194 C 
ENDBRANCH  32  37
BRANCH  33  39
ATOM     39  O   UNL     1      99.705  95.887 141.270  0.00  0.00    -0.386 OA
ATOM     40  H   UNL     1     100.417  96.018 141.927  0.00  0.00    +0.210 HD
ENDBRANCH  33  39
BRANCH  35  41
ATOM     41  O   UNL     1      99.931  98.421 142.564  0.00  0.00    -0.375 OA
ATOM     42  C   UNL     1     100.958  98.462 143.549  0.00  0.00    +0.194 C 
ENDBRANCH  35  41
ENDBRANCH  29  31
ENDBRANCH  10  29
BRANCH  21  43
ATOM     43  O   UNL     1     104.776  98.536 138.411  0.00  0.00    -0.347 OA
BRANCH  43  45
ATOM     44  O   UNL     1     106.002  97.586 140.105  0.00  0.00    -0.347 OA
ATOM     45  C   UNL     1     105.838  98.758 139.317  0.00  0.00    +0.251 C 
ATOM     46  C   UNL     1     105.697 100.087 140.093  0.00  0.00    +0.063 C 
ATOM     47  C   UNL     1     105.353 100.037 141.566  0.00  0.00    +0.026 C 
ATOM     48  C   UNL     1     105.737  98.729 142.235  0.00  0.00    +0.085 C 
ATOM     49  C   UNL     1     105.275  97.558 141.324  0.00  0.00    +0.135 C 
ATOM     50  C   UNL     1     103.764  97.514 141.055  0.00  0.00    +0.039 C 
BRANCH  48  51
ATOM     51  N   UNL     1     107.160  98.739 142.679  0.00  0.00    -0.303 NA
ATOM     52  C   UNL     1     107.495  99.988 143.357  0.00  0.00    +0.105 C 
ATOM     53  C   UNL     1     107.634  97.611 143.480  0.00  0.00    +0.105 C 
ENDBRANCH  48  51
ENDBRANCH  43  45
ENDBRANCH  21  43
TORSDOF 9
ENDMDL
MODEL 17
REMARK VINA RESULT:      -7.0     46.052     50.195
REMARK  Name = 
REMARK  18 active torsions:
REMARK  status: ('A' for Active; 'I' for Inactive)
REMARK    1  A    between atoms: O_1  and  C_18
REMARK    2  A    between atoms: O_1  and  C_27
REMARK    3  A    between atoms: O_5  and  C_30
REMARK    4  A    between atoms: O_5  and  C_44
REMARK    5  A    between atoms: O_6  and  C_31
REMARK    6  A    between atoms: O_6  and  C_41
REMARK    7  A    between atoms: O_8  and  C_32
REMARK    8  A    between atoms: O_9  and  C_35
REMARK    9  A    between atoms: O_9  and  C_49
REMARK   10  A    between atoms: N_11  and  C_46
REMARK   11  A    between atoms: N_11  and  C_51
REMARK   12  A    between atoms: N_11  and  C_52
REMARK   13  A    between atoms: C_20  and  C_25
REMARK   14  A    between atoms: C_28  and  C_33
REMARK   15  A    between atoms: C_34  and  C_40
REMARK   16  A    between atoms: C_37  and  C_42
REMARK   17  A    between atoms: C_42  and  C_48
REMARK   18  A    between atoms: C_47  and  C_50
REMARK                            x       y       z     vdW  Elec       q    Type
REMARK                         _______ _______ _______ _____ _____    ______ ____
ROOT
ATOM      1  O   UNL     1     127.209 125.456 157.982  0.00  0.00    -0.292 OA
ATOM      2  O   UNL     1     127.209 120.657 158.004  0.00  0.00    -0.461 OA
ATOM      3  O   UNL     1     129.149 120.378 156.979  0.00  0.00    -0.251 OA
ATOM      4  C   UNL     1     132.695 124.141 158.203  0.00  0.00    +0.006 C 
ATOM      5  C   UNL     1     131.627 124.686 157.262  0.00  0.00    +0.023 C 
ATOM      6  C   UNL     1     133.535 122.975 157.612  0.00  0.00    +0.021 C 
ATOM      7  C   UNL     1     130.812 123.561 156.549  0.00  0.00    +0.027 C 
ATOM      8  C   UNL     1     133.757 125.178 158.656  0.00  0.00    +0.036 C 
ATOM      9  C   UNL     1     134.950 123.536 157.500  0.00  0.00    +0.039 C 
ATOM     10  C   UNL     1     135.003 124.299 158.828  0.00  0.00    +0.122 C 
ATOM     11  C   UNL     1     129.622 123.301 157.522  0.00  0.00    +0.040 C 
ATOM     12  C   UNL     1     132.955 122.187 156.491  0.00  0.00    -0.073 C 
ATOM     13  C   UNL     1     130.554 125.433 158.014  0.00  0.00    -0.015 C 
ATOM     14  C   UNL     1     131.663 122.384 156.123  0.00  0.00    -0.023 C 
ATOM     15  C   UNL     1     129.431 124.706 158.112  0.00  0.00    -0.004 C 
ATOM     16  C   UNL     1     128.352 122.608 156.950  0.00  0.00    +0.129 C 
ATOM     17  C   UNL     1     133.820 121.055 156.018  0.00  0.00    +0.039 C 
ATOM     18  C   UNL     1     128.167 125.242 158.722  0.00  0.00    +0.164 C 
ATOM     19  C   UNL     1     128.088 125.447 160.250  0.00  0.00    +0.086 C 
ATOM     20  C   UNL     1     128.282 121.151 157.363  0.00  0.00    +0.308 C 
ATOM     21  C   UNL     1     127.940 124.134 161.098  0.00  0.00    +0.132 C 
ATOM     22  C   UNL     1     126.961 126.425 160.639  0.00  0.00    +0.018 C 
ATOM     23  C   UNL     1     128.509 122.931 160.344  0.00  0.00    +0.032 C 
ATOM     24  C   UNL     1     126.369 121.027 159.167  0.00  0.00    +0.176 C 
ATOM     25  C   UNL     1     128.427 121.474 160.730  0.00  0.00    +0.006 C 
ATOM     26  C   UNL     1     127.056 120.860 160.546  0.00  0.00    +0.045 C 
ENDROOT
BRANCH  24  27
ATOM     27  C   UNL     1     125.515 122.291 159.027  0.00  0.00    +0.041 C 
ATOM     28  C   UNL     1     124.744 122.593 160.301  0.00  0.00    +0.007 C 
ENDBRANCH  24  27
BRANCH  10  29
ATOM     29  O   UNL     1     134.646 123.436 159.898  0.00  0.00    -0.345 OA
BRANCH  29  31
ATOM     30  O   UNL     1     136.685 123.132 160.879  0.00  0.00    -0.343 OA
ATOM     31  C   UNL     1     135.302 123.306 161.136  0.00  0.00    +0.282 C 
ATOM     32  C   UNL     1     134.625 122.396 162.182  0.00  0.00    +0.205 C 
ATOM     33  C   UNL     1     135.231 120.989 162.165  0.00  0.00    +0.179 C 
ATOM     34  C   UNL     1     137.197 121.819 160.723  0.00  0.00    +0.150 C 
ATOM     35  C   UNL     1     136.760 120.924 161.896  0.00  0.00    +0.177 C 
ATOM     36  C   UNL     1     137.069 121.258 159.310  0.00  0.00    +0.041 C 
BRANCH  32  37
ATOM     37  O   UNL     1     134.347 122.960 163.482  0.00  0.00    -0.372 OA
ATOM     38  C   UNL     1     133.033 123.319 163.863  0.00  0.00    +0.194 C 
ENDBRANCH  32  37
BRANCH  33  39
ATOM     39  O   UNL     1     134.817 120.222 163.302  0.00  0.00    -0.386 OA
ATOM     40  H   UNL     1     134.810 119.283 163.031  0.00  0.00    +0.210 HD
ENDBRANCH  33  39
BRANCH  35  41
ATOM     41  O   UNL     1     137.500 121.175 163.111  0.00  0.00    -0.375 OA
ATOM     42  C   UNL     1     138.247 122.382 163.218  0.00  0.00    +0.194 C 
ENDBRANCH  35  41
ENDBRANCH  29  31
ENDBRANCH  10  29
BRANCH  21  43
ATOM     43  O   UNL     1     128.493 124.484 162.366  0.00  0.00    -0.347 OA
BRANCH  43  45
ATOM     44  O   UNL     1     127.138 123.065 163.559  0.00  0.00    -0.347 OA
ATOM     45  C   UNL     1     128.466 123.556 163.432  0.00  0.00    +0.251 C 
ATOM     46  C   UNL     1     129.114 124.105 164.723  0.00  0.00    +0.063 C 
ATOM     47  C   UNL     1     128.224 124.450 165.897  0.00  0.00    +0.026 C 
ATOM     48  C   UNL     1     126.899 123.705 165.893  0.00  0.00    +0.085 C 
ATOM     49  C   UNL     1     126.302 123.775 164.460  0.00  0.00    +0.135 C 
ATOM     50  C   UNL     1     126.034 125.198 163.948  0.00  0.00    +0.039 C 
BRANCH  48  51
ATOM     51  N   UNL     1     127.027 122.360 166.524  0.00  0.00    -0.303 NA
ATOM     52  C   UNL     1     127.717 122.440 167.808  0.00  0.00    +0.105 C 
ATOM     53  C   UNL     1     125.814 121.559 166.674  0.00  0.00    +0.105 C 
ENDBRANCH  48  51
ENDBRANCH  43  45
ENDBRANCH  21  43
TORSDOF 9
ENDMDL
MODEL 18
REMARK VINA RESULT:      -6.9     50.417     54.341
REMARK  Name = 
REMARK  18 active torsions:
REMARK  status: ('A' for Active; 'I' for Inactive)
REMARK    1  A    between atoms: O_1  and  C_18
REMARK    2  A    between atoms: O_1  and  C_27
REMARK    3  A    between atoms: O_5  and  C_30
REMARK    4  A    between atoms: O_5  and  C_44
REMARK    5  A    between atoms: O_6  and  C_31
REMARK    6  A    between atoms: O_6  and  C_41
REMARK    7  A    between atoms: O_8  and  C_32
REMARK    8  A    between atoms: O_9  and  C_35
REMARK    9  A    between atoms: O_9  and  C_49
REMARK   10  A    between atoms: N_11  and  C_46
REMARK   11  A    between atoms: N_11  and  C_51
REMARK   12  A    between atoms: N_11  and  C_52
REMARK   13  A    between atoms: C_20  and  C_25
REMARK   14  A    between atoms: C_28  and  C_33
REMARK   15  A    between atoms: C_34  and  C_40
REMARK   16  A    between atoms: C_37  and  C_42
REMARK   17  A    between atoms: C_42  and  C_48
REMARK   18  A    between atoms: C_47  and  C_50
REMARK                            x       y       z     vdW  Elec       q    Type
REMARK                         _______ _______ _______ _____ _____    ______ ____
ROOT
ATOM      1  O   UNL     1      91.744 108.915  64.089  0.00  0.00    -0.292 OA
ATOM      2  O   UNL     1      96.189 110.300  65.251  0.00  0.00    -0.461 OA
ATOM      3  O   UNL     1      95.671 111.327  67.140  0.00  0.00    -0.251 OA
ATOM      4  C   UNL     1      91.666 108.991  69.733  0.00  0.00    +0.006 C 
ATOM      5  C   UNL     1      91.155 109.749  68.514  0.00  0.00    +0.023 C 
ATOM      6  C   UNL     1      92.366 109.882  70.796  0.00  0.00    +0.021 C 
ATOM      7  C   UNL     1      92.192 110.775  67.957  0.00  0.00    +0.027 C 
ATOM      8  C   UNL     1      90.575 108.234  70.537  0.00  0.00    +0.036 C 
ATOM      9  C   UNL     1      91.464 109.799  72.024  0.00  0.00    +0.039 C 
ATOM     10  C   UNL     1      91.128 108.304  71.965  0.00  0.00    +0.122 C 
ATOM     11  C   UNL     1      93.007 109.942  66.922  0.00  0.00    +0.040 C 
ATOM     12  C   UNL     1      92.916 111.195  70.362  0.00  0.00    -0.073 C 
ATOM     13  C   UNL     1      90.946 108.831  67.336  0.00  0.00    -0.015 C 
ATOM     14  C   UNL     1      92.947 111.512  69.042  0.00  0.00    -0.023 C 
ATOM     15  C   UNL     1      91.925 108.971  66.430  0.00  0.00    -0.004 C 
ATOM     16  C   UNL     1      93.798 110.716  65.827  0.00  0.00    +0.129 C 
ATOM     17  C   UNL     1      93.612 111.963  71.447  0.00  0.00    +0.039 C 
ATOM     18  C   UNL     1      91.918 108.253  65.110  0.00  0.00    +0.164 C 
ATOM     19  C   UNL     1      92.189 106.734  65.069  0.00  0.00    +0.086 C 
ATOM     20  C   UNL     1      95.282 110.749  66.135  0.00  0.00    +0.308 C 
ATOM     21  C   UNL     1      93.684 106.311  65.291  0.00  0.00    +0.132 C 
ATOM     22  C   UNL     1      91.675 106.096  63.762  0.00  0.00    +0.018 C 
ATOM     23  C   UNL     1      94.439 107.373  66.090  0.00  0.00    +0.032 C 
ATOM     24  C   UNL     1      96.391 109.095  64.412  0.00  0.00    +0.176 C 
ATOM     25  C   UNL     1      95.918 107.434  66.385  0.00  0.00    +0.006 C 
ATOM     26  C   UNL     1      96.772 107.814  65.195  0.00  0.00    +0.045 C 
ENDROOT
BRANCH  24  27
ATOM     27  C   UNL     1      95.392 108.874  63.271  0.00  0.00    +0.041 C 
ATOM     28  C   UNL     1      95.725 107.628  62.467  0.00  0.00    +0.007 C 
ENDBRANCH  24  27
BRANCH  10  29
ATOM     29  O   UNL     1      92.324 107.541  71.889  0.00  0.00    -0.345 OA
BRANCH  29  31
ATOM     30  O   UNL     1      93.808 105.807  71.880  0.00  0.00    -0.343 OA
ATOM     31  C   UNL     1      92.485 106.184  72.224  0.00  0.00    +0.282 C 
ATOM     32  C   UNL     1      91.326 105.239  71.846  0.00  0.00    +0.205 C 
ATOM     33  C   UNL     1      91.601 104.531  70.515  0.00  0.00    +0.179 C 
ATOM     34  C   UNL     1      94.063 105.287  70.585  0.00  0.00    +0.150 C 
ATOM     35  C   UNL     1      93.084 104.146  70.258  0.00  0.00    +0.177 C 
ATOM     36  C   UNL     1      94.303 106.350  69.517  0.00  0.00    +0.041 C 
BRANCH  32  37
ATOM     37  O   UNL     1      90.750 104.432  72.895  0.00  0.00    -0.372 OA
ATOM     38  C   UNL     1      89.564 104.823  73.560  0.00  0.00    +0.194 C 
ENDBRANCH  32  37
BRANCH  33  39
ATOM     39  O   UNL     1      90.683 103.456  70.289  0.00  0.00    -0.386 OA
ATOM     40  H   UNL     1      89.825 103.721  70.675  0.00  0.00    +0.210 HD
ENDBRANCH  33  39
BRANCH  35  41
ATOM     41  O   UNL     1      93.410 102.907  70.927  0.00  0.00    -0.375 OA
ATOM     42  C   UNL     1      94.778 102.543  71.060  0.00  0.00    +0.194 C 
ENDBRANCH  35  41
ENDBRANCH  29  31
ENDBRANCH  10  29
BRANCH  21  43
ATOM     43  O   UNL     1      93.589 104.986  65.813  0.00  0.00    -0.347 OA
BRANCH  43  45
ATOM     44  O   UNL     1      94.299 102.805  65.926  0.00  0.00    -0.347 OA
ATOM     45  C   UNL     1      94.030 103.886  65.042  0.00  0.00    +0.251 C 
ATOM     46  C   UNL     1      95.162 104.257  64.058  0.00  0.00    +0.063 C 
ATOM     47  C   UNL     1      96.562 103.756  64.334  0.00  0.00    +0.026 C 
ATOM     48  C   UNL     1      96.601 102.508  65.200  0.00  0.00    +0.085 C 
ATOM     49  C   UNL     1      95.635 102.714  66.399  0.00  0.00    +0.135 C 
ATOM     50  C   UNL     1      95.976 103.910  67.298  0.00  0.00    +0.039 C 
BRANCH  48  51
ATOM     51  N   UNL     1      96.436 101.272  64.383  0.00  0.00    -0.303 NA
ATOM     52  C   UNL     1      97.179 101.361  63.129  0.00  0.00    +0.105 C 
ATOM     53  C   UNL     1      96.719  99.988  65.023  0.00  0.00    +0.105 C 
ENDBRANCH  48  51
ENDBRANCH  43  45
ENDBRANCH  21  43
TORSDOF 9
ENDMDL
MODEL 19
REMARK VINA RESULT:      -6.9     34.733     40.299
REMARK  Name = 
REMARK  18 active torsions:
REMARK  status: ('A' for Active; 'I' for Inactive)
REMARK    1  A    between atoms: O_1  and  C_18
REMARK    2  A    between atoms: O_1  and  C_27
REMARK    3  A    between atoms: O_5  and  C_30
REMARK    4  A    between atoms: O_5  and  C_44
REMARK    5  A    between atoms: O_6  and  C_31
REMARK    6  A    between atoms: O_6  and  C_41
REMARK    7  A    between atoms: O_8  and  C_32
REMARK    8  A    between atoms: O_9  and  C_35
REMARK    9  A    between atoms: O_9  and  C_49
REMARK   10  A    between atoms: N_11  and  C_46
REMARK   11  A    between atoms: N_11  and  C_51
REMARK   12  A    between atoms: N_11  and  C_52
REMARK   13  A    between atoms: C_20  and  C_25
REMARK   14  A    between atoms: C_28  and  C_33
REMARK   15  A    between atoms: C_34  and  C_40
REMARK   16  A    between atoms: C_37  and  C_42
REMARK   17  A    between atoms: C_42  and  C_48
REMARK   18  A    between atoms: C_47  and  C_50
REMARK                            x       y       z     vdW  Elec       q    Type
REMARK                         _______ _______ _______ _____ _____    ______ ____
ROOT
ATOM      1  O   UNL     1     152.032 129.478 135.866  0.00  0.00    -0.292 OA
ATOM      2  O   UNL     1     149.208 133.068 134.395  0.00  0.00    -0.461 OA
ATOM      3  O   UNL     1     147.350 131.886 134.183  0.00  0.00    -0.251 OA
ATOM      4  C   UNL     1     146.934 128.021 137.804  0.00  0.00    +0.006 C 
ATOM      5  C   UNL     1     147.963 127.660 136.739  0.00  0.00    +0.023 C 
ATOM      6  C   UNL     1     145.492 128.219 137.261  0.00  0.00    +0.021 C 
ATOM      7  C   UNL     1     147.840 128.536 135.453  0.00  0.00    +0.027 C 
ATOM      8  C   UNL     1     146.769 126.972 138.936  0.00  0.00    +0.036 C 
ATOM      9  C   UNL     1     144.683 127.090 137.894  0.00  0.00    +0.039 C 
ATOM     10  C   UNL     1     145.288 127.132 139.302  0.00  0.00    +0.122 C 
ATOM     11  C   UNL     1     148.778 129.747 135.747  0.00  0.00    +0.040 C 
ATOM     12  C   UNL     1     145.321 128.540 135.818  0.00  0.00    -0.073 C 
ATOM     13  C   UNL     1     149.367 127.959 137.200  0.00  0.00    -0.015 C 
ATOM     14  C   UNL     1     146.408 128.816 135.053  0.00  0.00    -0.023 C 
ATOM     15  C   UNL     1     149.845 129.069 136.618  0.00  0.00    -0.004 C 
ATOM     16  C   UNL     1     149.292 130.579 134.537  0.00  0.00    +0.129 C 
ATOM     17  C   UNL     1     143.897 128.756 135.397  0.00  0.00    +0.039 C 
ATOM     18  C   UNL     1     151.256 129.547 136.816  0.00  0.00    +0.164 C 
ATOM     19  C   UNL     1     151.667 130.162 138.171  0.00  0.00    +0.086 C 
ATOM     20  C   UNL     1     148.551 131.896 134.414  0.00  0.00    +0.308 C 
ATOM     21  C   UNL     1     151.137 131.615 138.439  0.00  0.00    +0.132 C 
ATOM     22  C   UNL     1     153.196 130.141 138.368  0.00  0.00    +0.018 C 
ATOM     23  C   UNL     1     149.865 131.889 137.637  0.00  0.00    +0.032 C 
ATOM     24  C   UNL     1     150.266 133.739 135.186  0.00  0.00    +0.176 C 
ATOM     25  C   UNL     1     149.128 133.198 137.486  0.00  0.00    +0.006 C 
ATOM     26  C   UNL     1     149.828 134.203 136.597  0.00  0.00    +0.045 C 
ENDROOT
BRANCH  24  27
ATOM     27  C   UNL     1     151.669 133.124 135.121  0.00  0.00    +0.041 C 
ATOM     28  C   UNL     1     152.665 133.910 135.958  0.00  0.00    +0.007 C 
ENDBRANCH  24  27
BRANCH  10  29
ATOM     29  O   UNL     1     145.222 128.453 139.820  0.00  0.00    -0.345 OA
BRANCH  29  31
ATOM     30  O   UNL     1     145.304 128.844 142.067  0.00  0.00    -0.343 OA
ATOM     31  C   UNL     1     146.011 129.000 140.848  0.00  0.00    +0.282 C 
ATOM     32  C   UNL     1     146.683 130.356 140.553  0.00  0.00    +0.205 C 
ATOM     33  C   UNL     1     145.856 131.517 141.114  0.00  0.00    +0.179 C 
ATOM     34  C   UNL     1     144.429 129.876 142.494  0.00  0.00    +0.150 C 
ATOM     35  C   UNL     1     145.144 131.238 142.467  0.00  0.00    +0.177 C 
ATOM     36  C   UNL     1     143.025 129.794 141.902  0.00  0.00    +0.041 C 
BRANCH  32  37
ATOM     37  O   UNL     1     148.114 130.446 140.724  0.00  0.00    -0.372 OA
ATOM     38  C   UNL     1     148.763 129.854 141.832  0.00  0.00    +0.194 C 
ENDBRANCH  32  37
BRANCH  33  39
ATOM     39  O   UNL     1     146.591 132.746 141.097  0.00  0.00    -0.386 OA
ATOM     40  H   UNL     1     147.454 132.563 140.677  0.00  0.00    +0.210 HD
ENDBRANCH  33  39
BRANCH  35  41
ATOM     41  O   UNL     1     146.060 131.422 143.569  0.00  0.00    -0.375 OA
ATOM     42  C   UNL     1     145.855 132.520 144.451  0.00  0.00    +0.194 C 
ENDBRANCH  35  41
ENDBRANCH  29  31
ENDBRANCH  10  29
BRANCH  21  43
ATOM     43  O   UNL     1     151.093 131.704 139.863  0.00  0.00    -0.347 OA
BRANCH  43  45
ATOM     44  O   UNL     1     152.599 132.948 141.070  0.00  0.00    -0.347 OA
ATOM     45  C   UNL     1     151.296 132.948 140.503  0.00  0.00    +0.251 C 
ATOM     46  C   UNL     1     150.139 133.329 141.454  0.00  0.00    +0.063 C 
ATOM     47  C   UNL     1     150.381 133.291 142.947  0.00  0.00    +0.026 C 
ATOM     48  C   UNL     1     151.844 133.437 143.330  0.00  0.00    +0.085 C 
ATOM     49  C   UNL     1     152.685 132.504 142.416  0.00  0.00    +0.135 C 
ATOM     50  C   UNL     1     152.327 131.014 142.520  0.00  0.00    +0.039 C 
BRANCH  48  51
ATOM     51  N   UNL     1     152.247 134.871 143.411  0.00  0.00    -0.303 NA
ATOM     52  C   UNL     1     151.382 135.613 144.323  0.00  0.00    +0.105 C 
ATOM     53  C   UNL     1     153.645 135.171 143.716  0.00  0.00    +0.105 C 
ENDBRANCH  48  51
ENDBRANCH  43  45
ENDBRANCH  21  43
TORSDOF 9
ENDMDL
MODEL 20
REMARK VINA RESULT:      -6.8     43.440     46.718
REMARK  Name = 
REMARK  18 active torsions:
REMARK  status: ('A' for Active; 'I' for Inactive)
REMARK    1  A    between atoms: O_1  and  C_18
REMARK    2  A    between atoms: O_1  and  C_27
REMARK    3  A    between atoms: O_5  and  C_30
REMARK    4  A    between atoms: O_5  and  C_44
REMARK    5  A    between atoms: O_6  and  C_31
REMARK    6  A    between atoms: O_6  and  C_41
REMARK    7  A    between atoms: O_8  and  C_32
REMARK    8  A    between atoms: O_9  and  C_35
REMARK    9  A    between atoms: O_9  and  C_49
REMARK   10  A    between atoms: N_11  and  C_46
REMARK   11  A    between atoms: N_11  and  C_51
REMARK   12  A    between atoms: N_11  and  C_52
REMARK   13  A    between atoms: C_20  and  C_25
REMARK   14  A    between atoms: C_28  and  C_33
REMARK   15  A    between atoms: C_34  and  C_40
REMARK   16  A    between atoms: C_37  and  C_42
REMARK   17  A    between atoms: C_42  and  C_48
REMARK   18  A    between atoms: C_47  and  C_50
REMARK                            x       y       z     vdW  Elec       q    Type
REMARK                         _______ _______ _______ _____ _____    ______ ____
ROOT
ATOM      1  O   UNL     1     124.219 114.412  63.390  0.00  0.00    -0.292 OA
ATOM      2  O   UNL     1     121.992 110.797  61.152  0.00  0.00    -0.461 OA
ATOM      3  O   UNL     1     122.938 109.149  62.285  0.00  0.00    -0.251 OA
ATOM      4  C   UNL     1     123.893 110.408  67.357  0.00  0.00    +0.006 C 
ATOM      5  C   UNL     1     124.883 111.103  66.429  0.00  0.00    +0.023 C 
ATOM      6  C   UNL     1     123.951 108.856  67.312  0.00  0.00    +0.021 C 
ATOM      7  C   UNL     1     124.925 110.471  65.002  0.00  0.00    +0.027 C 
ATOM      8  C   UNL     1     124.061 110.746  68.863  0.00  0.00    +0.036 C 
ATOM      9  C   UNL     1     124.431 108.447  68.701  0.00  0.00    +0.039 C 
ATOM     10  C   UNL     1     123.612 109.441  69.532  0.00  0.00    +0.122 C 
ATOM     11  C   UNL     1     123.842 111.273  64.217  0.00  0.00    +0.040 C 
ATOM     12  C   UNL     1     124.529 108.209  66.102  0.00  0.00    -0.073 C 
ATOM     13  C   UNL     1     124.470 112.524  66.140  0.00  0.00    -0.015 C 
ATOM     14  C   UNL     1     124.833 108.960  65.013  0.00  0.00    -0.023 C 
ATOM     15  C   UNL     1     123.951 112.639  64.908  0.00  0.00    -0.004 C 
ATOM     16  C   UNL     1     123.920 111.271  62.664  0.00  0.00    +0.129 C 
ATOM     17  C   UNL     1     124.502 106.709  66.131  0.00  0.00    +0.039 C 
ATOM     18  C   UNL     1     123.550 113.961  64.318  0.00  0.00    +0.164 C 
ATOM     19  C   UNL     1     122.286 114.676  64.843  0.00  0.00    +0.086 C 
ATOM     20  C   UNL     1     122.878 110.350  62.058  0.00  0.00    +0.308 C 
ATOM     21  C   UNL     1     120.920 114.055  64.382  0.00  0.00    +0.132 C 
ATOM     22  C   UNL     1     122.295 116.180  64.500  0.00  0.00    +0.018 C 
ATOM     23  C   UNL     1     121.082 112.573  64.042  0.00  0.00    +0.032 C 
ATOM     24  C   UNL     1     121.061 111.942  61.011  0.00  0.00    +0.176 C 
ATOM     25  C   UNL     1     120.064 111.649  63.419  0.00  0.00    +0.006 C 
ATOM     26  C   UNL     1     119.826 111.895  61.944  0.00  0.00    +0.045 C 
ENDROOT
BRANCH  24  27
ATOM     27  C   UNL     1     121.693 113.329  60.855  0.00  0.00    +0.041 C 
ATOM     28  C   UNL     1     120.639 114.410  60.682  0.00  0.00    +0.007 C 
ENDBRANCH  24  27
BRANCH  10  29
ATOM     29  O   UNL     1     122.239 109.352  69.182  0.00  0.00    -0.345 OA
BRANCH  29  31
ATOM     30  O   UNL     1     120.078 110.084  69.245  0.00  0.00    -0.343 OA
ATOM     31  C   UNL     1     121.134 109.554  70.028  0.00  0.00    +0.282 C 
ATOM     32  C   UNL     1     121.426 110.191  71.402  0.00  0.00    +0.205 C 
ATOM     33  C   UNL     1     121.176 111.703  71.374  0.00  0.00    +0.179 C 
ATOM     34  C   UNL     1     119.954 111.491  69.116  0.00  0.00    +0.150 C 
ATOM     35  C   UNL     1     119.977 112.165  70.500  0.00  0.00    +0.177 C 
ATOM     36  C   UNL     1     120.811 112.099  68.011  0.00  0.00    +0.041 C 
BRANCH  32  37
ATOM     37  O   UNL     1     120.974 109.487  72.578  0.00  0.00    -0.372 OA
ATOM     38  C   UNL     1     119.643 109.018  72.690  0.00  0.00    +0.194 C 
ENDBRANCH  32  37
BRANCH  33  39
ATOM     39  O   UNL     1     121.170 112.261  72.693  0.00  0.00    -0.386 OA
ATOM     40  H   UNL     1     121.513 113.174  72.623  0.00  0.00    +0.210 HD
ENDBRANCH  33  39
BRANCH  35  41
ATOM     41  O   UNL     1     118.735 112.022  71.224  0.00  0.00    -0.375 OA
ATOM     42  C   UNL     1     117.893 113.160  71.367  0.00  0.00    +0.194 C 
ENDBRANCH  35  41
ENDBRANCH  29  31
ENDBRANCH  10  29
BRANCH  21  43
ATOM     43  O   UNL     1     120.008 114.437  65.411  0.00  0.00    -0.347 OA
BRANCH  43  45
ATOM     44  O   UNL     1     117.887 114.942  66.131  0.00  0.00    -0.347 OA
ATOM     45  C   UNL     1     118.831 115.150  65.088  0.00  0.00    +0.251 C 
ATOM     46  C   UNL     1     118.334 114.869  63.653  0.00  0.00    +0.063 C 
ATOM     47  C   UNL     1     117.076 114.049  63.465  0.00  0.00    +0.026 C 
ATOM     48  C   UNL     1     116.148 114.076  64.667  0.00  0.00    +0.085 C 
ATOM     49  C   UNL     1     116.999 113.849  65.947  0.00  0.00    +0.135 C 
ATOM     50  C   UNL     1     117.761 112.517  65.981  0.00  0.00    +0.039 C 
BRANCH  48  51
ATOM     51  N   UNL     1     115.248 115.265  64.636  0.00  0.00    -0.303 NA
ATOM     52  C   UNL     1     114.620 115.420  63.328  0.00  0.00    +0.105 C 
ATOM     53  C   UNL     1     114.230 115.377  65.680  0.00  0.00    +0.105 C 
ENDBRANCH  48  51
ENDBRANCH  43  45
ENDBRANCH  21  43
TORSDOF 9
ENDMDL
