MODEL 1
REMARK VINA RESULT:      -7.3      0.000      0.000
REMARK  Name = 
REMARK  18 active torsions:
REMARK  status: ('A' for Active; 'I' for Inactive)
REMARK    1  A    between atoms: O_1  and  C_18
REMARK    2  A    between atoms: O_1  and  C_27
REMARK    3  A    between atoms: O_5  and  C_30
REMARK    4  A    between atoms: O_5  and  C_44
REMARK    5  A    between atoms: O_6  and  C_31
REMARK    6  A    between atoms: O_6  and  C_41
REMARK    7  A    between atoms: O_8  and  C_32
REMARK    8  A    between atoms: O_9  and  C_35
REMARK    9  A    between atoms: O_9  and  C_49
REMARK   10  A    between atoms: N_11  and  C_46
REMARK   11  A    between atoms: N_11  and  C_51
REMARK   12  A    between atoms: N_11  and  C_52
REMARK   13  A    between atoms: C_20  and  C_25
REMARK   14  A    between atoms: C_28  and  C_33
REMARK   15  A    between atoms: C_34  and  C_40
REMARK   16  A    between atoms: C_37  and  C_42
REMARK   17  A    between atoms: C_42  and  C_48
REMARK   18  A    between atoms: C_47  and  C_50
REMARK                            x       y       z     vdW  Elec       q    Type
REMARK                         _______ _______ _______ _____ _____    ______ ____
ROOT
ATOM      1  O   UNL     1     110.983 111.782  45.198  0.00  0.00    -0.292 OA
ATOM      2  O   UNL     1     107.311 110.498  48.008  0.00  0.00    -0.461 OA
ATOM      3  O   UNL     1     106.324 112.476  48.090  0.00  0.00    -0.251 OA
ATOM      4  C   UNL     1     106.814 115.221  43.568  0.00  0.00    +0.006 C 
ATOM      5  C   UNL     1     108.127 115.207  44.341  0.00  0.00    +0.023 C 
ATOM      6  C   UNL     1     105.634 115.895  44.320  0.00  0.00    +0.021 C 
ATOM      7  C   UNL     1     107.951 114.787  45.833  0.00  0.00    +0.027 C 
ATOM      8  C   UNL     1     106.864 115.963  42.206  0.00  0.00    +0.036 C 
ATOM      9  C   UNL     1     105.300 117.129  43.488  0.00  0.00    +0.039 C 
ATOM     10  C   UNL     1     105.436 116.512  42.091  0.00  0.00    +0.122 C 
ATOM     11  C   UNL     1     108.119 113.237  45.797  0.00  0.00    +0.040 C 
ATOM     12  C   UNL     1     105.710 115.995  45.803  0.00  0.00    -0.073 C 
ATOM     13  C   UNL     1     109.068 114.151  43.817  0.00  0.00    -0.015 C 
ATOM     14  C   UNL     1     106.705 115.359  46.474  0.00  0.00    -0.023 C 
ATOM     15  C   UNL     1     109.116 113.091  44.638  0.00  0.00    -0.004 C 
ATOM     16  C   UNL     1     108.486 112.514  47.125  0.00  0.00    +0.129 C 
ATOM     17  C   UNL     1     104.506 116.621  46.444  0.00  0.00    +0.039 C 
ATOM     18  C   UNL     1     110.048 111.934  44.416  0.00  0.00    +0.164 C 
ATOM     19  C   UNL     1     109.770 110.944  43.264  0.00  0.00    +0.086 C 
ATOM     20  C   UNL     1     107.283 111.811  47.724  0.00  0.00    +0.308 C 
ATOM     21  C   UNL     1     108.586 109.944  43.506  0.00  0.00    +0.132 C 
ATOM     22  C   UNL     1     111.032 110.144  42.880  0.00  0.00    +0.018 C 
ATOM     23  C   UNL     1     107.582 110.519  44.506  0.00  0.00    +0.032 C 
ATOM     24  C   UNL     1     107.703 109.242  47.325  0.00  0.00    +0.176 C 
ATOM     25  C   UNL     1     106.394 109.826  45.129  0.00  0.00    +0.006 C 
ATOM     26  C   UNL     1     106.757 108.800  46.181  0.00  0.00    +0.045 C 
ENDROOT
BRANCH  24  27
ATOM     27  C   UNL     1     109.195 109.056  47.029  0.00  0.00    +0.041 C 
ATOM     28  C   UNL     1     109.481 107.693  46.420  0.00  0.00    +0.007 C 
ENDBRANCH  24  27
BRANCH  10  29
ATOM     29  O   UNL     1     104.643 115.337  42.001  0.00  0.00    -0.345 OA
BRANCH  29  31
ATOM     30  O   UNL     1     103.102 114.040  40.928  0.00  0.00    -0.343 OA
ATOM     31  C   UNL     1     104.423 114.550  40.856  0.00  0.00    +0.282 C 
ATOM     32  C   UNL     1     105.562 113.594  40.447  0.00  0.00    +0.205 C 
ATOM     33  C   UNL     1     105.315 112.179  40.979  0.00  0.00    +0.179 C 
ATOM     34  C   UNL     1     102.880 112.788  41.557  0.00  0.00    +0.150 C 
ATOM     35  C   UNL     1     103.830 111.720  40.989  0.00  0.00    +0.177 C 
ATOM     36  C   UNL     1     102.717 112.867  43.072  0.00  0.00    +0.041 C 
BRANCH  32  37
ATOM     37  O   UNL     1     106.069 113.694  39.099  0.00  0.00    -0.372 OA
ATOM     38  C   UNL     1     105.228 114.051  38.019  0.00  0.00    +0.194 C 
ENDBRANCH  32  37
BRANCH  33  39
ATOM     39  O   UNL     1     106.204 111.228  40.383  0.00  0.00    -0.386 OA
ATOM     40  H   UNL     1     105.850 111.015  39.496  0.00  0.00    +0.210 HD
ENDBRANCH  33  39
BRANCH  35  41
ATOM     41  O   UNL     1     103.437 111.245  39.682  0.00  0.00    -0.375 OA
ATOM     42  C   UNL     1     102.050 111.126  39.388  0.00  0.00    +0.194 C 
ENDBRANCH  35  41
ENDBRANCH  29  31
ENDBRANCH  10  29
BRANCH  21  43
ATOM     43  O   UNL     1     108.144 109.613  42.190  0.00  0.00    -0.347 OA
BRANCH  43  45
ATOM     44  O   UNL     1     107.324 108.089  40.682  0.00  0.00    -0.347 OA
ATOM     45  C   UNL     1     108.294 108.296  41.701  0.00  0.00    +0.251 C 
ATOM     46  C   UNL     1     108.336 107.238  42.826  0.00  0.00    +0.063 C 
ATOM     47  C   UNL     1     107.152 106.312  43.001  0.00  0.00    +0.026 C 
ATOM     48  C   UNL     1     106.325 106.139  41.738  0.00  0.00    +0.085 C 
ATOM     49  C   UNL     1     106.087 107.541  41.112  0.00  0.00    +0.135 C 
ATOM     50  C   UNL     1     105.341 108.529  42.021  0.00  0.00    +0.039 C 
BRANCH  48  51
ATOM     51  N   UNL     1     106.889 105.075  40.858  0.00  0.00    -0.303 NA
ATOM     52  C   UNL     1     106.994 103.803  41.565  0.00  0.00    +0.105 C 
ATOM     53  C   UNL     1     106.254 104.857  39.559  0.00  0.00    +0.105 C 
ENDBRANCH  48  51
ENDBRANCH  43  45
ENDBRANCH  21  43
TORSDOF 9
ENDMDL
MODEL 2
REMARK VINA RESULT:      -7.2     22.194     27.172
REMARK  Name = 
REMARK  18 active torsions:
REMARK  status: ('A' for Active; 'I' for Inactive)
REMARK    1  A    between atoms: O_1  and  C_18
REMARK    2  A    between atoms: O_1  and  C_27
REMARK    3  A    between atoms: O_5  and  C_30
REMARK    4  A    between atoms: O_5  and  C_44
REMARK    5  A    between atoms: O_6  and  C_31
REMARK    6  A    between atoms: O_6  and  C_41
REMARK    7  A    between atoms: O_8  and  C_32
REMARK    8  A    between atoms: O_9  and  C_35
REMARK    9  A    between atoms: O_9  and  C_49
REMARK   10  A    between atoms: N_11  and  C_46
REMARK   11  A    between atoms: N_11  and  C_51
REMARK   12  A    between atoms: N_11  and  C_52
REMARK   13  A    between atoms: C_20  and  C_25
REMARK   14  A    between atoms: C_28  and  C_33
REMARK   15  A    between atoms: C_34  and  C_40
REMARK   16  A    between atoms: C_37  and  C_42
REMARK   17  A    between atoms: C_42  and  C_48
REMARK   18  A    between atoms: C_47  and  C_50
REMARK                            x       y       z     vdW  Elec       q    Type
REMARK                         _______ _______ _______ _____ _____    ______ ____
ROOT
ATOM      1  O   UNL     1     103.850 136.136  28.891  0.00  0.00    -0.292 OA
ATOM      2  O   UNL     1     105.917 138.838  32.275  0.00  0.00    -0.461 OA
ATOM      3  O   UNL     1     105.406 137.554  34.002  0.00  0.00    -0.251 OA
ATOM      4  C   UNL     1     105.412 132.378  32.804  0.00  0.00    +0.006 C 
ATOM      5  C   UNL     1     104.184 133.069  32.224  0.00  0.00    +0.023 C 
ATOM      6  C   UNL     1     105.506 132.431  34.354  0.00  0.00    +0.021 C 
ATOM      7  C   UNL     1     103.908 134.463  32.869  0.00  0.00    +0.027 C 
ATOM      8  C   UNL     1     105.530 130.867  32.471  0.00  0.00    +0.036 C 
ATOM      9  C   UNL     1     105.374 130.978  34.798  0.00  0.00    +0.039 C 
ATOM     10  C   UNL     1     106.242 130.324  33.717  0.00  0.00    +0.122 C 
ATOM     11  C   UNL     1     104.713 135.448  31.966  0.00  0.00    +0.040 C 
ATOM     12  C   UNL     1     104.757 133.501  35.068  0.00  0.00    -0.073 C 
ATOM     13  C   UNL     1     104.378 133.419  30.770  0.00  0.00    -0.015 C 
ATOM     14  C   UNL     1     104.155 134.492  34.362  0.00  0.00    -0.023 C 
ATOM     15  C   UNL     1     104.611 134.731  30.612  0.00  0.00    -0.004 C 
ATOM     16  C   UNL     1     104.312 136.950  31.990  0.00  0.00    +0.129 C 
ATOM     17  C   UNL     1     104.944 133.498  36.557  0.00  0.00    +0.039 C 
ATOM     18  C   UNL     1     104.742 135.375  29.261  0.00  0.00    +0.164 C 
ATOM     19  C   UNL     1     106.007 135.118  28.414  0.00  0.00    +0.086 C 
ATOM     20  C   UNL     1     105.292 137.773  32.803  0.00  0.00    +0.308 C 
ATOM     21  C   UNL     1     107.302 135.863  28.895  0.00  0.00    +0.132 C 
ATOM     22  C   UNL     1     105.771 135.432  26.923  0.00  0.00    +0.018 C 
ATOM     23  C   UNL     1     107.226 136.180  30.389  0.00  0.00    +0.032 C 
ATOM     24  C   UNL     1     106.675 139.157  31.041  0.00  0.00    +0.176 C 
ATOM     25  C   UNL     1     108.180 137.016  31.208  0.00  0.00    +0.006 C 
ATOM     26  C   UNL     1     108.077 138.504  30.951  0.00  0.00    +0.045 C 
ENDROOT
BRANCH  24  27
ATOM     27  C   UNL     1     105.885 139.159  29.728  0.00  0.00    +0.041 C 
ATOM     28  C   UNL     1     104.881 140.299  29.679  0.00  0.00    +0.007 C 
ENDBRANCH  24  27
BRANCH  10  29
ATOM     29  O   UNL     1     107.513 130.956  33.667  0.00  0.00    -0.345 OA
BRANCH  29  31
ATOM     30  O   UNL     1     109.668 131.489  33.139  0.00  0.00    -0.343 OA
ATOM     31  C   UNL     1     108.643 130.529  32.947  0.00  0.00    +0.282 C 
ATOM     32  C   UNL     1     108.390 129.993  31.523  0.00  0.00    +0.205 C 
ATOM     33  C   UNL     1     108.627 131.083  30.472  0.00  0.00    +0.179 C 
ATOM     34  C   UNL     1     109.776 132.574  32.231  0.00  0.00    +0.150 C 
ATOM     35  C   UNL     1     109.792 132.065  30.779  0.00  0.00    +0.177 C 
ATOM     36  C   UNL     1     108.877 133.762  32.561  0.00  0.00    +0.041 C 
BRANCH  32  37
ATOM     37  O   UNL     1     108.887 128.676  31.204  0.00  0.00    -0.372 OA
ATOM     38  C   UNL     1     108.661 127.575  32.064  0.00  0.00    +0.194 C 
ENDBRANCH  32  37
BRANCH  33  39
ATOM     39  O   UNL     1     108.671 130.539  29.148  0.00  0.00    -0.386 OA
ATOM     40  H   UNL     1     108.616 131.290  28.524  0.00  0.00    +0.210 HD
ENDBRANCH  33  39
BRANCH  35  41
ATOM     41  O   UNL     1     111.058 131.486  30.392  0.00  0.00    -0.375 OA
ATOM     42  C   UNL     1     111.708 131.981  29.228  0.00  0.00    +0.194 C 
ENDBRANCH  35  41
ENDBRANCH  29  31
ENDBRANCH  10  29
BRANCH  21  43
ATOM     43  O   UNL     1     108.366 135.043  28.412  0.00  0.00    -0.347 OA
BRANCH  43  45
ATOM     44  O   UNL     1     110.478 134.859  27.530  0.00  0.00    -0.347 OA
ATOM     45  C   UNL     1     109.227 135.521  27.398  0.00  0.00    +0.251 C 
ATOM     46  C   UNL     1     109.277 137.064  27.331  0.00  0.00    +0.063 C 
ATOM     47  C   UNL     1     110.533 137.773  27.789  0.00  0.00    +0.026 C 
ATOM     48  C   UNL     1     111.778 136.905  27.724  0.00  0.00    +0.085 C 
ATOM     49  C   UNL     1     111.441 135.518  28.338  0.00  0.00    +0.135 C 
ATOM     50  C   UNL     1     110.984 135.562  29.804  0.00  0.00    +0.039 C 
BRANCH  48  51
ATOM     51  N   UNL     1     112.390 136.929  26.364  0.00  0.00    -0.303 NA
ATOM     52  C   UNL     1     112.697 138.293  25.945  0.00  0.00    +0.105 C 
ATOM     53  C   UNL     1     113.552 136.074  26.124  0.00  0.00    +0.105 C 
ENDBRANCH  48  51
ENDBRANCH  43  45
ENDBRANCH  21  43
TORSDOF 9
ENDMDL
MODEL 3
REMARK VINA RESULT:      -7.0     25.907     30.419
REMARK  Name = 
REMARK  18 active torsions:
REMARK  status: ('A' for Active; 'I' for Inactive)
REMARK    1  A    between atoms: O_1  and  C_18
REMARK    2  A    between atoms: O_1  and  C_27
REMARK    3  A    between atoms: O_5  and  C_30
REMARK    4  A    between atoms: O_5  and  C_44
REMARK    5  A    between atoms: O_6  and  C_31
REMARK    6  A    between atoms: O_6  and  C_41
REMARK    7  A    between atoms: O_8  and  C_32
REMARK    8  A    between atoms: O_9  and  C_35
REMARK    9  A    between atoms: O_9  and  C_49
REMARK   10  A    between atoms: N_11  and  C_46
REMARK   11  A    between atoms: N_11  and  C_51
REMARK   12  A    between atoms: N_11  and  C_52
REMARK   13  A    between atoms: C_20  and  C_25
REMARK   14  A    between atoms: C_28  and  C_33
REMARK   15  A    between atoms: C_34  and  C_40
REMARK   16  A    between atoms: C_37  and  C_42
REMARK   17  A    between atoms: C_42  and  C_48
REMARK   18  A    between atoms: C_47  and  C_50
REMARK                            x       y       z     vdW  Elec       q    Type
REMARK                         _______ _______ _______ _____ _____    ______ ____
ROOT
ATOM      1  O   UNL     1     114.099 143.875  47.467  0.00  0.00    -0.292 OA
ATOM      2  O   UNL     1     112.089 145.049  43.270  0.00  0.00    -0.461 OA
ATOM      3  O   UNL     1     113.952 145.096  42.077  0.00  0.00    -0.251 OA
ATOM      4  C   UNL     1     117.510 141.482  43.657  0.00  0.00    +0.006 C 
ATOM      5  C   UNL     1     117.437 142.640  44.645  0.00  0.00    +0.023 C 
ATOM      6  C   UNL     1     117.958 141.887  42.226  0.00  0.00    +0.021 C 
ATOM      7  C   UNL     1     116.738 143.903  44.051  0.00  0.00    +0.027 C 
ATOM      8  C   UNL     1     118.493 140.347  44.052  0.00  0.00    +0.036 C 
ATOM      9  C   UNL     1     119.302 141.190  42.030  0.00  0.00    +0.039 C 
ATOM     10  C   UNL     1     118.962 139.844  42.681  0.00  0.00    +0.122 C 
ATOM     11  C   UNL     1     115.235 143.688  44.408  0.00  0.00    +0.040 C 
ATOM     12  C   UNL     1     117.787 143.305  41.810  0.00  0.00    -0.073 C 
ATOM     13  C   UNL     1     116.558 142.309  45.825  0.00  0.00    -0.015 C 
ATOM     14  C   UNL     1     117.102 144.166  42.606  0.00  0.00    -0.023 C 
ATOM     15  C   UNL     1     115.369 142.925  45.734  0.00  0.00    -0.004 C 
ATOM     16  C   UNL     1     114.303 144.934  44.414  0.00  0.00    +0.129 C 
ATOM     17  C   UNL     1     118.206 143.590  40.397  0.00  0.00    +0.039 C 
ATOM     18  C   UNL     1     114.334 142.856  46.820  0.00  0.00    +0.164 C 
ATOM     19  C   UNL     1     113.559 141.540  47.049  0.00  0.00    +0.086 C 
ATOM     20  C   UNL     1     113.428 144.978  43.177  0.00  0.00    +0.308 C 
ATOM     21  C   UNL     1     112.458 141.213  45.979  0.00  0.00    +0.132 C 
ATOM     22  C   UNL     1     112.925 141.486  48.454  0.00  0.00    +0.018 C 
ATOM     23  C   UNL     1     112.774 141.891  44.646  0.00  0.00    +0.032 C 
ATOM     24  C   UNL     1     111.009 144.355  44.009  0.00  0.00    +0.176 C 
ATOM     25  C   UNL     1     111.905 141.963  43.414  0.00  0.00    +0.006 C 
ATOM     26  C   UNL     1     110.727 142.905  43.541  0.00  0.00    +0.045 C 
ENDROOT
BRANCH  24  27
ATOM     27  C   UNL     1     110.975 144.554  45.529  0.00  0.00    +0.041 C 
ATOM     28  C   UNL     1     109.814 143.810  46.167  0.00  0.00    +0.007 C 
ENDBRANCH  24  27
BRANCH  10  29
ATOM     29  O   UNL     1     117.777 139.312  42.107  0.00  0.00    -0.345 OA
BRANCH  29  31
ATOM     30  O   UNL     1     115.978 137.910  42.188  0.00  0.00    -0.343 OA
ATOM     31  C   UNL     1     117.390 137.961  42.064  0.00  0.00    +0.282 C 
ATOM     32  C   UNL     1     118.239 136.974  42.891  0.00  0.00    +0.205 C 
ATOM     33  C   UNL     1     117.598 136.701  44.255  0.00  0.00    +0.179 C 
ATOM     34  C   UNL     1     115.402 137.802  43.480  0.00  0.00    +0.150 C 
ATOM     35  C   UNL     1     116.045 136.645  44.264  0.00  0.00    +0.177 C 
ATOM     36  C   UNL     1     115.216 139.135  44.198  0.00  0.00    +0.041 C 
BRANCH  32  37
ATOM     37  O   UNL     1     118.799 135.834  42.205  0.00  0.00    -0.372 OA
ATOM     38  C   UNL     1     118.017 135.040  41.333  0.00  0.00    +0.194 C 
ENDBRANCH  32  37
BRANCH  33  39
ATOM     39  O   UNL     1     118.214 135.589  44.916  0.00  0.00    -0.386 OA
ATOM     40  H   UNL     1     117.497 135.003  45.227  0.00  0.00    +0.210 HD
ENDBRANCH  33  39
BRANCH  35  41
ATOM     41  O   UNL     1     115.582 135.343  43.841  0.00  0.00    -0.375 OA
ATOM     42  C   UNL     1     114.709 134.617  44.698  0.00  0.00    +0.194 C 
ENDBRANCH  35  41
ENDBRANCH  29  31
ENDBRANCH  10  29
BRANCH  21  43
ATOM     43  O   UNL     1     112.349 139.790  46.026  0.00  0.00    -0.347 OA
BRANCH  43  45
ATOM     44  O   UNL     1     110.599 138.348  46.379  0.00  0.00    -0.347 OA
ATOM     45  C   UNL     1     111.260 139.141  45.402  0.00  0.00    +0.251 C 
ATOM     46  C   UNL     1     111.660 138.419  44.096  0.00  0.00    +0.063 C 
ATOM     47  C   UNL     1     111.694 136.906  44.080  0.00  0.00    +0.026 C 
ATOM     48  C   UNL     1     110.806 136.268  45.135  0.00  0.00    +0.085 C 
ATOM     49  C   UNL     1     111.042 137.003  46.483  0.00  0.00    +0.135 C 
ATOM     50  C   UNL     1     112.487 136.945  46.999  0.00  0.00    +0.039 C 
BRANCH  48  51
ATOM     51  N   UNL     1     109.400 136.134  44.658  0.00  0.00    -0.303 NA
ATOM     52  C   UNL     1     109.314 135.239  43.508  0.00  0.00    +0.105 C 
ATOM     53  C   UNL     1     108.379 135.765  45.637  0.00  0.00    +0.105 C 
ENDBRANCH  48  51
ENDBRANCH  43  45
ENDBRANCH  21  43
TORSDOF 9
ENDMDL
MODEL 4
REMARK VINA RESULT:      -6.9     21.193     26.092
REMARK  Name = 
REMARK  18 active torsions:
REMARK  status: ('A' for Active; 'I' for Inactive)
REMARK    1  A    between atoms: O_1  and  C_18
REMARK    2  A    between atoms: O_1  and  C_27
REMARK    3  A    between atoms: O_5  and  C_30
REMARK    4  A    between atoms: O_5  and  C_44
REMARK    5  A    between atoms: O_6  and  C_31
REMARK    6  A    between atoms: O_6  and  C_41
REMARK    7  A    between atoms: O_8  and  C_32
REMARK    8  A    between atoms: O_9  and  C_35
REMARK    9  A    between atoms: O_9  and  C_49
REMARK   10  A    between atoms: N_11  and  C_46
REMARK   11  A    between atoms: N_11  and  C_51
REMARK   12  A    between atoms: N_11  and  C_52
REMARK   13  A    between atoms: C_20  and  C_25
REMARK   14  A    between atoms: C_28  and  C_33
REMARK   15  A    between atoms: C_34  and  C_40
REMARK   16  A    between atoms: C_37  and  C_42
REMARK   17  A    between atoms: C_42  and  C_48
REMARK   18  A    between atoms: C_47  and  C_50
REMARK                            x       y       z     vdW  Elec       q    Type
REMARK                         _______ _______ _______ _____ _____    ______ ____
ROOT
ATOM      1  O   UNL     1     133.361 107.024  45.550  0.00  0.00    -0.292 OA
ATOM      2  O   UNL     1     132.013 108.763  41.285  0.00  0.00    -0.461 OA
ATOM      3  O   UNL     1     133.155 107.339  40.035  0.00  0.00    -0.251 OA
ATOM      4  C   UNL     1     133.471 102.491  42.186  0.00  0.00    +0.006 C 
ATOM      5  C   UNL     1     134.385 103.470  42.915  0.00  0.00    +0.023 C 
ATOM      6  C   UNL     1     133.816 102.287  40.685  0.00  0.00    +0.021 C 
ATOM      7  C   UNL     1     134.652 104.775  42.100  0.00  0.00    +0.027 C 
ATOM      8  C   UNL     1     133.458 101.052  42.768  0.00  0.00    +0.036 C 
ATOM      9  C   UNL     1     134.255 100.829  40.585  0.00  0.00    +0.039 C 
ATOM     10  C   UNL     1     133.207 100.206  41.514  0.00  0.00    +0.122 C 
ATOM     11  C   UNL     1     133.504 105.728  42.554  0.00  0.00    +0.040 C 
ATOM     12  C   UNL     1     134.594 103.350  39.991  0.00  0.00    -0.073 C 
ATOM     13  C   UNL     1     133.742 104.000  44.171  0.00  0.00    -0.015 C 
ATOM     14  C   UNL     1     134.838 104.529  40.619  0.00  0.00    -0.023 C 
ATOM     15  C   UNL     1     133.307 105.258  44.002  0.00  0.00    -0.004 C 
ATOM     16  C   UNL     1     133.699 107.256  42.338  0.00  0.00    +0.129 C 
ATOM     17  C   UNL     1     134.840 103.084  38.535  0.00  0.00    +0.039 C 
ATOM     18  C   UNL     1     132.716 106.070  45.120  0.00  0.00    +0.164 C 
ATOM     19  C   UNL     1     131.307 105.725  45.647  0.00  0.00    +0.086 C 
ATOM     20  C   UNL     1     132.894 107.757  41.155  0.00  0.00    +0.308 C 
ATOM     21  C   UNL     1     130.117 106.146  44.714  0.00  0.00    +0.132 C 
ATOM     22  C   UNL     1     131.066 106.302  47.057  0.00  0.00    +0.018 C 
ATOM     23  C   UNL     1     130.574 106.238  43.257  0.00  0.00    +0.032 C 
ATOM     24  C   UNL     1     130.901 109.128  42.195  0.00  0.00    +0.176 C 
ATOM     25  C   UNL     1     129.793 106.754  42.073  0.00  0.00    +0.006 C 
ATOM     26  C   UNL     1     129.628 108.259  42.049  0.00  0.00    +0.045 C 
ENDROOT
BRANCH  24  27
ATOM     27  C   UNL     1     131.278 109.473  43.640  0.00  0.00    +0.041 C 
ATOM     28  C   UNL     1     130.051 109.781  44.482  0.00  0.00    +0.007 C 
ENDBRANCH  24  27
BRANCH  10  29
ATOM     29  O   UNL     1     131.904 100.603  41.110  0.00  0.00    -0.345 OA
BRANCH  29  31
ATOM     30  O   UNL     1     129.645 100.809  41.364  0.00  0.00    -0.343 OA
ATOM     31  C   UNL     1     130.709  99.877  41.271  0.00  0.00    +0.282 C 
ATOM     32  C   UNL     1     130.748  98.700  42.266  0.00  0.00    +0.205 C 
ATOM     33  C   UNL     1     130.212  99.117  43.639  0.00  0.00    +0.179 C 
ATOM     34  C   UNL     1     129.261 101.293  42.641  0.00  0.00    +0.150 C 
ATOM     35  C   UNL     1     129.030 100.125  43.616  0.00  0.00    +0.177 C 
ATOM     36  C   UNL     1     130.079 102.483  43.133  0.00  0.00    +0.041 C 
BRANCH  32  37
ATOM     37  O   UNL     1     130.339  97.402  41.785  0.00  0.00    -0.372 OA
ATOM     38  C   UNL     1     129.202  97.247  40.957  0.00  0.00    +0.194 C 
ENDBRANCH  32  37
BRANCH  33  39
ATOM     39  O   UNL     1     129.981  97.984  44.484  0.00  0.00    -0.386 OA
ATOM     40  H   UNL     1     130.726  97.366  44.351  0.00  0.00    +0.210 HD
ENDBRANCH  33  39
BRANCH  35  41
ATOM     41  O   UNL     1     127.780  99.436  43.392  0.00  0.00    -0.375 OA
ATOM     42  C   UNL     1     126.604 100.207  43.176  0.00  0.00    +0.194 C 
ENDBRANCH  35  41
ENDBRANCH  29  31
ENDBRANCH  10  29
BRANCH  21  43
ATOM     43  O   UNL     1     129.074 105.235  45.059  0.00  0.00    -0.347 OA
BRANCH  43  45
ATOM     44  O   UNL     1     126.875 104.700  45.447  0.00  0.00    -0.347 OA
ATOM     45  C   UNL     1     127.858 105.717  45.593  0.00  0.00    +0.251 C 
ATOM     46  C   UNL     1     127.477 107.114  45.053  0.00  0.00    +0.063 C 
ATOM     47  C   UNL     1     126.315 107.231  44.090  0.00  0.00    +0.026 C 
ATOM     48  C   UNL     1     125.317 106.091  44.201  0.00  0.00    +0.085 C 
ATOM     49  C   UNL     1     126.106 104.753  44.255  0.00  0.00    +0.135 C 
ATOM     50  C   UNL     1     126.986 104.480  43.027  0.00  0.00    +0.039 C 
BRANCH  48  51
ATOM     51  N   UNL     1     124.314 106.346  45.274  0.00  0.00    -0.303 NA
ATOM     52  C   UNL     1     123.645 107.628  45.081  0.00  0.00    +0.105 C 
ATOM     53  C   UNL     1     123.314 105.311  45.533  0.00  0.00    +0.105 C 
ENDBRANCH  48  51
ENDBRANCH  43  45
ENDBRANCH  21  43
TORSDOF 9
ENDMDL
MODEL 5
REMARK VINA RESULT:      -6.8     82.315     86.905
REMARK  Name = 
REMARK  18 active torsions:
REMARK  status: ('A' for Active; 'I' for Inactive)
REMARK    1  A    between atoms: O_1  and  C_18
REMARK    2  A    between atoms: O_1  and  C_27
REMARK    3  A    between atoms: O_5  and  C_30
REMARK    4  A    between atoms: O_5  and  C_44
REMARK    5  A    between atoms: O_6  and  C_31
REMARK    6  A    between atoms: O_6  and  C_41
REMARK    7  A    between atoms: O_8  and  C_32
REMARK    8  A    between atoms: O_9  and  C_35
REMARK    9  A    between atoms: O_9  and  C_49
REMARK   10  A    between atoms: N_11  and  C_46
REMARK   11  A    between atoms: N_11  and  C_51
REMARK   12  A    between atoms: N_11  and  C_52
REMARK   13  A    between atoms: C_20  and  C_25
REMARK   14  A    between atoms: C_28  and  C_33
REMARK   15  A    between atoms: C_34  and  C_40
REMARK   16  A    between atoms: C_37  and  C_42
REMARK   17  A    between atoms: C_42  and  C_48
REMARK   18  A    between atoms: C_47  and  C_50
REMARK                            x       y       z     vdW  Elec       q    Type
REMARK                         _______ _______ _______ _____ _____    ______ ____
ROOT
ATOM      1  O   UNL     1     111.327 120.104 124.351  0.00  0.00    -0.292 OA
ATOM      2  O   UNL     1     111.854 115.607 125.941  0.00  0.00    -0.461 OA
ATOM      3  O   UNL     1     113.585 115.985 127.264  0.00  0.00    -0.251 OA
ATOM      4  C   UNL     1     113.438 120.782 129.543  0.00  0.00    +0.006 C 
ATOM      5  C   UNL     1     113.813 120.891 128.069  0.00  0.00    +0.023 C 
ATOM      6  C   UNL     1     114.441 119.961 130.400  0.00  0.00    +0.021 C 
ATOM      7  C   UNL     1     114.271 119.531 127.455  0.00  0.00    +0.027 C 
ATOM      8  C   UNL     1     113.326 122.137 130.291  0.00  0.00    +0.036 C 
ATOM      9  C   UNL     1     115.037 120.975 131.373  0.00  0.00    +0.039 C 
ATOM     10  C   UNL     1     113.760 121.752 131.711  0.00  0.00    +0.122 C 
ATOM     11  C   UNL     1     112.943 118.906 126.926  0.00  0.00    +0.040 C 
ATOM     12  C   UNL     1     115.324 118.984 129.707  0.00  0.00    -0.073 C 
ATOM     13  C   UNL     1     112.620 121.244 127.218  0.00  0.00    -0.015 C 
ATOM     14  C   UNL     1     115.128 118.709 128.392  0.00  0.00    -0.023 C 
ATOM     15  C   UNL     1     112.170 120.176 126.542  0.00  0.00    -0.004 C 
ATOM     16  C   UNL     1     113.043 117.797 125.840  0.00  0.00    +0.129 C 
ATOM     17  C   UNL     1     116.226 118.208 130.623  0.00  0.00    +0.039 C 
ATOM     18  C   UNL     1     111.055 120.260 125.539  0.00  0.00    +0.164 C 
ATOM     19  C   UNL     1     109.607 120.475 126.029  0.00  0.00    +0.086 C 
ATOM     20  C   UNL     1     112.805 116.420 126.429  0.00  0.00    +0.308 C 
ATOM     21  C   UNL     1     108.924 119.221 126.683  0.00  0.00    +0.132 C 
ATOM     22  C   UNL     1     108.696 121.013 124.907  0.00  0.00    +0.018 C 
ATOM     23  C   UNL     1     109.973 118.266 127.255  0.00  0.00    +0.032 C 
ATOM     24  C   UNL     1     110.419 115.699 125.580  0.00  0.00    +0.176 C 
ATOM     25  C   UNL     1     109.755 116.884 127.823  0.00  0.00    +0.006 C 
ATOM     26  C   UNL     1     109.452 115.827 126.783  0.00  0.00    +0.045 C 
ENDROOT
BRANCH  24  27
ATOM     27  C   UNL     1     110.067 116.584 124.379  0.00  0.00    +0.041 C 
ATOM     28  C   UNL     1     108.568 116.620 124.129  0.00  0.00    +0.007 C 
ENDBRANCH  24  27
BRANCH  10  29
ATOM     29  O   UNL     1     112.741 120.854 132.129  0.00  0.00    -0.345 OA
BRANCH  29  31
ATOM     30  O   UNL     1     111.027 120.149 133.460  0.00  0.00    -0.343 OA
ATOM     31  C   UNL     1     112.394 120.526 133.452  0.00  0.00    +0.282 C 
ATOM     32  C   UNL     1     112.904 121.476 134.555  0.00  0.00    +0.205 C 
ATOM     33  C   UNL     1     111.830 122.495 134.947  0.00  0.00    +0.179 C 
ATOM     34  C   UNL     1     110.039 121.142 133.683  0.00  0.00    +0.150 C 
ATOM     35  C   UNL     1     110.370 121.962 134.943  0.00  0.00    +0.177 C 
ATOM     36  C   UNL     1     109.615 121.900 132.429  0.00  0.00    +0.041 C 
BRANCH  32  37
ATOM     37  O   UNL     1     113.668 120.899 135.636  0.00  0.00    -0.372 OA
ATOM     38  C   UNL     1     115.062 120.685 135.521  0.00  0.00    +0.194 C 
ENDBRANCH  32  37
BRANCH  33  39
ATOM     39  O   UNL     1     112.179 123.195 136.147  0.00  0.00    -0.386 OA
ATOM     40  H   UNL     1     111.525 122.947 136.829  0.00  0.00    +0.210 HD
ENDBRANCH  33  39
BRANCH  35  41
ATOM     41  O   UNL     1     110.083 121.259 136.172  0.00  0.00    -0.375 OA
ATOM     42  C   UNL     1     109.061 121.763 137.024  0.00  0.00    +0.194 C 
ENDBRANCH  35  41
ENDBRANCH  29  31
ENDBRANCH  10  29
BRANCH  21  43
ATOM     43  O   UNL     1     107.946 119.783 127.557  0.00  0.00    -0.347 OA
BRANCH  43  45
ATOM     44  O   UNL     1     106.625 121.630 127.215  0.00  0.00    -0.347 OA
ATOM     45  C   UNL     1     106.704 120.220 127.045  0.00  0.00    +0.251 C 
ATOM     46  C   UNL     1     105.509 119.402 127.584  0.00  0.00    +0.063 C 
ATOM     47  C   UNL     1     104.564 120.055 128.569  0.00  0.00    +0.026 C 
ATOM     48  C   UNL     1     104.551 121.571 128.484  0.00  0.00    +0.085 C 
ATOM     49  C   UNL     1     106.021 122.071 128.422  0.00  0.00    +0.135 C 
ATOM     50  C   UNL     1     106.880 121.683 129.634  0.00  0.00    +0.039 C 
BRANCH  48  51
ATOM     51  N   UNL     1     103.613 122.052 127.429  0.00  0.00    -0.303 NA
ATOM     52  C   UNL     1     102.312 121.398 127.539  0.00  0.00    +0.105 C 
ATOM     53  C   UNL     1     103.421 123.495 127.293  0.00  0.00    +0.105 C 
ENDBRANCH  48  51
ENDBRANCH  43  45
ENDBRANCH  21  43
TORSDOF 9
ENDMDL
MODEL 6
REMARK VINA RESULT:      -6.8     66.718     71.234
REMARK  Name = 
REMARK  18 active torsions:
REMARK  status: ('A' for Active; 'I' for Inactive)
REMARK    1  A    between atoms: O_1  and  C_18
REMARK    2  A    between atoms: O_1  and  C_27
REMARK    3  A    between atoms: O_5  and  C_30
REMARK    4  A    between atoms: O_5  and  C_44
REMARK    5  A    between atoms: O_6  and  C_31
REMARK    6  A    between atoms: O_6  and  C_41
REMARK    7  A    between atoms: O_8  and  C_32
REMARK    8  A    between atoms: O_9  and  C_35
REMARK    9  A    between atoms: O_9  and  C_49
REMARK   10  A    between atoms: N_11  and  C_46
REMARK   11  A    between atoms: N_11  and  C_51
REMARK   12  A    between atoms: N_11  and  C_52
REMARK   13  A    between atoms: C_20  and  C_25
REMARK   14  A    between atoms: C_28  and  C_33
REMARK   15  A    between atoms: C_34  and  C_40
REMARK   16  A    between atoms: C_37  and  C_42
REMARK   17  A    between atoms: C_42  and  C_48
REMARK   18  A    between atoms: C_47  and  C_50
REMARK                            x       y       z     vdW  Elec       q    Type
REMARK                         _______ _______ _______ _____ _____    ______ ____
ROOT
ATOM      1  O   UNL     1     121.638 115.952 112.777  0.00  0.00    -0.292 OA
ATOM      2  O   UNL     1     125.457 118.033 110.747  0.00  0.00    -0.461 OA
ATOM      3  O   UNL     1     124.524 118.468 108.790  0.00  0.00    -0.251 OA
ATOM      4  C   UNL     1     119.361 119.659 109.180  0.00  0.00    +0.006 C 
ATOM      5  C   UNL     1     119.591 118.166 109.381  0.00  0.00    +0.023 C 
ATOM      6  C   UNL     1     119.791 120.192 107.785  0.00  0.00    +0.021 C 
ATOM      7  C   UNL     1     120.992 117.693 108.881  0.00  0.00    +0.027 C 
ATOM      8  C   UNL     1     117.884 120.117 109.318  0.00  0.00    +0.036 C 
ATOM      9  C   UNL     1     118.490 120.638 107.124  0.00  0.00    +0.039 C 
ATOM     10  C   UNL     1     117.826 121.297 108.339  0.00  0.00    +0.122 C 
ATOM     11  C   UNL     1     121.901 117.860 110.137  0.00  0.00    +0.040 C 
ATOM     12  C   UNL     1     120.790 119.408 107.010  0.00  0.00    -0.073 C 
ATOM     13  C   UNL     1     119.631 117.803 110.844  0.00  0.00    -0.015 C 
ATOM     14  C   UNL     1     121.422 118.355 107.590  0.00  0.00    -0.023 C 
ATOM     15  C   UNL     1     120.888 117.576 111.255  0.00  0.00    -0.004 C 
ATOM     16  C   UNL     1     123.232 117.055 110.183  0.00  0.00    +0.129 C 
ATOM     17  C   UNL     1     121.176 120.024 105.697  0.00  0.00    +0.039 C 
ATOM     18  C   UNL     1     121.215 117.098 112.642  0.00  0.00    +0.164 C 
ATOM     19  C   UNL     1     121.072 118.068 113.834  0.00  0.00    +0.086 C 
ATOM     20  C   UNL     1     124.427 117.941 109.889  0.00  0.00    +0.308 C 
ATOM     21  C   UNL     1     122.190 119.164 113.948  0.00  0.00    +0.132 C 
ATOM     22  C   UNL     1     120.969 117.315 115.176  0.00  0.00    +0.018 C 
ATOM     23  C   UNL     1     122.818 119.447 112.583  0.00  0.00    +0.032 C 
ATOM     24  C   UNL     1     125.651 118.255 112.200  0.00  0.00    +0.176 C 
ATOM     25  C   UNL     1     124.020 120.308 112.276  0.00  0.00    +0.006 C 
ATOM     26  C   UNL     1     125.341 119.694 112.684  0.00  0.00    +0.045 C 
ENDROOT
BRANCH  24  27
ATOM     27  C   UNL     1     125.164 117.146 113.138  0.00  0.00    +0.041 C 
ATOM     28  C   UNL     1     125.562 117.414 114.580  0.00  0.00    +0.007 C 
ENDBRANCH  24  27
BRANCH  10  29
ATOM     29  O   UNL     1     118.709 122.245 108.920  0.00  0.00    -0.345 OA
BRANCH  29  31
ATOM     30  O   UNL     1     119.187 124.375 109.588  0.00  0.00    -0.343 OA
ATOM     31  C   UNL     1     118.385 123.238 109.862  0.00  0.00    +0.282 C 
ATOM     32  C   UNL     1     118.235 122.776 111.326  0.00  0.00    +0.205 C 
ATOM     33  C   UNL     1     119.526 123.011 112.116  0.00  0.00    +0.179 C 
ATOM     34  C   UNL     1     120.449 124.498 110.225  0.00  0.00    +0.150 C 
ATOM     35  C   UNL     1     120.310 124.301 111.745  0.00  0.00    +0.177 C 
ATOM     36  C   UNL     1     121.586 123.773 109.512  0.00  0.00    +0.041 C 
BRANCH  32  37
ATOM     37  O   UNL     1     117.000 123.091 112.005  0.00  0.00    -0.372 OA
ATOM     38  C   UNL     1     116.437 124.388 111.948  0.00  0.00    +0.194 C 
ENDBRANCH  32  37
BRANCH  33  39
ATOM     39  O   UNL     1     119.321 122.852 113.524  0.00  0.00    -0.386 OA
ATOM     40  H   UNL     1     119.423 123.733 113.934  0.00  0.00    +0.210 HD
ENDBRANCH  33  39
BRANCH  35  41
ATOM     41  O   UNL     1     119.747 125.448 112.419  0.00  0.00    -0.375 OA
ATOM     42  C   UNL     1     120.617 126.501 112.816  0.00  0.00    +0.194 C 
ENDBRANCH  35  41
ENDBRANCH  29  31
ENDBRANCH  10  29
BRANCH  21  43
ATOM     43  O   UNL     1     121.554 120.228 114.655  0.00  0.00    -0.347 OA
BRANCH  43  45
ATOM     44  O   UNL     1     121.642 121.986 116.128  0.00  0.00    -0.347 OA
ATOM     45  C   UNL     1     122.049 120.641 115.912  0.00  0.00    +0.251 C 
ATOM     46  C   UNL     1     123.556 120.349 116.090  0.00  0.00    +0.063 C 
ATOM     47  C   UNL     1     124.528 121.508 116.086  0.00  0.00    +0.026 C 
ATOM     48  C   UNL     1     123.896 122.834 116.474  0.00  0.00    +0.085 C 
ATOM     49  C   UNL     1     122.557 122.983 115.699  0.00  0.00    +0.135 C 
ATOM     50  C   UNL     1     122.699 122.969 114.170  0.00  0.00    +0.039 C 
BRANCH  48  51
ATOM     51  N   UNL     1     123.860 123.009 117.955  0.00  0.00    -0.303 NA
ATOM     52  C   UNL     1     125.187 122.847 118.540  0.00  0.00    +0.105 C 
ATOM     53  C   UNL     1     123.242 124.224 118.483  0.00  0.00    +0.105 C 
ENDBRANCH  48  51
ENDBRANCH  43  45
ENDBRANCH  21  43
TORSDOF 9
ENDMDL
MODEL 7
REMARK VINA RESULT:      -6.7     25.122     28.850
REMARK  Name = 
REMARK  18 active torsions:
REMARK  status: ('A' for Active; 'I' for Inactive)
REMARK    1  A    between atoms: O_1  and  C_18
REMARK    2  A    between atoms: O_1  and  C_27
REMARK    3  A    between atoms: O_5  and  C_30
REMARK    4  A    between atoms: O_5  and  C_44
REMARK    5  A    between atoms: O_6  and  C_31
REMARK    6  A    between atoms: O_6  and  C_41
REMARK    7  A    between atoms: O_8  and  C_32
REMARK    8  A    between atoms: O_9  and  C_35
REMARK    9  A    between atoms: O_9  and  C_49
REMARK   10  A    between atoms: N_11  and  C_46
REMARK   11  A    between atoms: N_11  and  C_51
REMARK   12  A    between atoms: N_11  and  C_52
REMARK   13  A    between atoms: C_20  and  C_25
REMARK   14  A    between atoms: C_28  and  C_33
REMARK   15  A    between atoms: C_34  and  C_40
REMARK   16  A    between atoms: C_37  and  C_42
REMARK   17  A    between atoms: C_42  and  C_48
REMARK   18  A    between atoms: C_47  and  C_50
REMARK                            x       y       z     vdW  Elec       q    Type
REMARK                         _______ _______ _______ _____ _____    ______ ____
ROOT
ATOM      1  O   UNL     1      91.732 108.971  64.118  0.00  0.00    -0.292 OA
ATOM      2  O   UNL     1      96.179 110.341  65.288  0.00  0.00    -0.461 OA
ATOM      3  O   UNL     1      95.664 111.353  67.186  0.00  0.00    -0.251 OA
ATOM      4  C   UNL     1      91.658 108.999  69.762  0.00  0.00    +0.006 C 
ATOM      5  C   UNL     1      91.147 109.769  68.550  0.00  0.00    +0.023 C 
ATOM      6  C   UNL     1      92.360 109.881  70.832  0.00  0.00    +0.021 C 
ATOM      7  C   UNL     1      92.184 110.798  68.001  0.00  0.00    +0.027 C 
ATOM      8  C   UNL     1      90.566 108.237  70.560  0.00  0.00    +0.036 C 
ATOM      9  C   UNL     1      91.459 109.789  72.060  0.00  0.00    +0.039 C 
ATOM     10  C   UNL     1      91.121 108.295  71.989  0.00  0.00    +0.122 C 
ATOM     11  C   UNL     1      92.998 109.973  66.958  0.00  0.00    +0.040 C 
ATOM     12  C   UNL     1      92.911 111.197  70.408  0.00  0.00    -0.073 C 
ATOM     13  C   UNL     1      90.936 108.861  67.365  0.00  0.00    -0.015 C 
ATOM     14  C   UNL     1      92.941 111.525  69.091  0.00  0.00    -0.023 C 
ATOM     15  C   UNL     1      91.915 109.007  66.459  0.00  0.00    -0.004 C 
ATOM     16  C   UNL     1      93.789 110.755  65.870  0.00  0.00    +0.129 C 
ATOM     17  C   UNL     1      93.608 111.955  71.500  0.00  0.00    +0.039 C 
ATOM     18  C   UNL     1      91.906 108.300  65.133  0.00  0.00    +0.164 C 
ATOM     19  C   UNL     1      92.175 106.781  65.079  0.00  0.00    +0.086 C 
ATOM     20  C   UNL     1      95.274 110.784  66.176  0.00  0.00    +0.308 C 
ATOM     21  C   UNL     1      93.670 106.354  65.296  0.00  0.00    +0.132 C 
ATOM     22  C   UNL     1      91.660 106.155  63.767  0.00  0.00    +0.018 C 
ATOM     23  C   UNL     1      94.426 107.410  66.104  0.00  0.00    +0.032 C 
ATOM     24  C   UNL     1      96.379 109.143  64.439  0.00  0.00    +0.176 C 
ATOM     25  C   UNL     1      95.906 107.466  66.399  0.00  0.00    +0.006 C 
ATOM     26  C   UNL     1      96.760 107.855  65.211  0.00  0.00    +0.045 C 
ENDROOT
BRANCH  24  27
ATOM     27  C   UNL     1      95.380 108.933  63.297  0.00  0.00    +0.041 C 
ATOM     28  C   UNL     1      95.710 107.693  62.482  0.00  0.00    +0.007 C 
ENDBRANCH  24  27
BRANCH  10  29
ATOM     29  O   UNL     1      92.316 107.531  71.905  0.00  0.00    -0.345 OA
BRANCH  29  31
ATOM     30  O   UNL     1      93.798 105.795  71.879  0.00  0.00    -0.343 OA
ATOM     31  C   UNL     1      92.475 106.170  72.225  0.00  0.00    +0.282 C 
ATOM     32  C   UNL     1      91.315 105.231  71.836  0.00  0.00    +0.205 C 
ATOM     33  C   UNL     1      91.591 104.538  70.498  0.00  0.00    +0.179 C 
ATOM     34  C   UNL     1      94.053 105.290  70.579  0.00  0.00    +0.150 C 
ATOM     35  C   UNL     1      93.074 104.153  70.238  0.00  0.00    +0.177 C 
ATOM     36  C   UNL     1      94.296 106.364  69.523  0.00  0.00    +0.041 C 
BRANCH  32  37
ATOM     37  O   UNL     1      90.737 104.413  72.875  0.00  0.00    -0.372 OA
ATOM     38  C   UNL     1      89.576 104.820  73.574  0.00  0.00    +0.194 C 
ENDBRANCH  32  37
BRANCH  33  39
ATOM     39  O   UNL     1      90.672 103.466  70.258  0.00  0.00    -0.386 OA
ATOM     40  H   UNL     1      89.844 103.682  70.732  0.00  0.00    +0.210 HD
ENDBRANCH  33  39
BRANCH  35  41
ATOM     41  O   UNL     1      93.397 102.907  70.894  0.00  0.00    -0.375 OA
ATOM     42  C   UNL     1      94.766 102.558  71.061  0.00  0.00    +0.194 C 
ENDBRANCH  35  41
ENDBRANCH  29  31
ENDBRANCH  10  29
BRANCH  21  43
ATOM     43  O   UNL     1      93.574 105.025  65.807  0.00  0.00    -0.347 OA
BRANCH  43  45
ATOM     44  O   UNL     1      94.275 102.841  65.905  0.00  0.00    -0.347 OA
ATOM     45  C   UNL     1      94.019 103.932  65.030  0.00  0.00    +0.251 C 
ATOM     46  C   UNL     1      95.162 104.310  64.061  0.00  0.00    +0.063 C 
ATOM     47  C   UNL     1      96.558 103.801  64.347  0.00  0.00    +0.026 C 
ATOM     48  C   UNL     1      96.583 102.544  65.199  0.00  0.00    +0.085 C 
ATOM     49  C   UNL     1      95.605 102.740  66.390  0.00  0.00    +0.135 C 
ATOM     50  C   UNL     1      95.941 103.926  67.306  0.00  0.00    +0.039 C 
BRANCH  48  51
ATOM     51  N   UNL     1      96.423 101.316  64.368  0.00  0.00    -0.303 NA
ATOM     52  C   UNL     1      97.201 101.405  63.136  0.00  0.00    +0.105 C 
ATOM     53  C   UNL     1      96.669 100.023  65.005  0.00  0.00    +0.105 C 
ENDBRANCH  48  51
ENDBRANCH  43  45
ENDBRANCH  21  43
TORSDOF 9
ENDMDL
MODEL 8
REMARK VINA RESULT:      -6.7     51.833     55.740
REMARK  Name = 
REMARK  18 active torsions:
REMARK  status: ('A' for Active; 'I' for Inactive)
REMARK    1  A    between atoms: O_1  and  C_18
REMARK    2  A    between atoms: O_1  and  C_27
REMARK    3  A    between atoms: O_5  and  C_30
REMARK    4  A    between atoms: O_5  and  C_44
REMARK    5  A    between atoms: O_6  and  C_31
REMARK    6  A    between atoms: O_6  and  C_41
REMARK    7  A    between atoms: O_8  and  C_32
REMARK    8  A    between atoms: O_9  and  C_35
REMARK    9  A    between atoms: O_9  and  C_49
REMARK   10  A    between atoms: N_11  and  C_46
REMARK   11  A    between atoms: N_11  and  C_51
REMARK   12  A    between atoms: N_11  and  C_52
REMARK   13  A    between atoms: C_20  and  C_25
REMARK   14  A    between atoms: C_28  and  C_33
REMARK   15  A    between atoms: C_34  and  C_40
REMARK   16  A    between atoms: C_37  and  C_42
REMARK   17  A    between atoms: C_42  and  C_48
REMARK   18  A    between atoms: C_47  and  C_50
REMARK                            x       y       z     vdW  Elec       q    Type
REMARK                         _______ _______ _______ _____ _____    ______ ____
ROOT
ATOM      1  O   UNL     1     142.524 141.380  74.691  0.00  0.00    -0.292 OA
ATOM      2  O   UNL     1     145.578 145.054  74.239  0.00  0.00    -0.461 OA
ATOM      3  O   UNL     1     147.011 144.054  72.883  0.00  0.00    -0.251 OA
ATOM      4  C   UNL     1     144.662 140.685  69.513  0.00  0.00    +0.006 C 
ATOM      5  C   UNL     1     144.708 140.102  70.921  0.00  0.00    +0.023 C 
ATOM      6  C   UNL     1     146.056 140.968  68.890  0.00  0.00    +0.021 C 
ATOM      7  C   UNL     1     145.726 140.835  71.850  0.00  0.00    +0.027 C 
ATOM      8  C   UNL     1     143.953 139.792  68.459  0.00  0.00    +0.036 C 
ATOM      9  C   UNL     1     146.153 140.007  67.708  0.00  0.00    +0.039 C 
ATOM     10  C   UNL     1     144.721 140.145  67.179  0.00  0.00    +0.122 C 
ATOM     11  C   UNL     1     144.874 141.969  72.499  0.00  0.00    +0.040 C 
ATOM     12  C   UNL     1     147.215 141.140  69.808  0.00  0.00    -0.073 C 
ATOM     13  C   UNL     1     143.403 140.305  71.649  0.00  0.00    -0.015 C 
ATOM     14  C   UNL     1     147.012 141.215  71.148  0.00  0.00    -0.023 C 
ATOM     15  C   UNL     1     143.500 141.287  72.557  0.00  0.00    -0.004 C 
ATOM     16  C   UNL     1     145.394 142.601  73.822  0.00  0.00    +0.129 C 
ATOM     17  C   UNL     1     148.510 141.454  69.116  0.00  0.00    +0.039 C 
ATOM     18  C   UNL     1     142.381 141.636  73.498  0.00  0.00    +0.164 C 
ATOM     19  C   UNL     1     141.127 142.354  72.955  0.00  0.00    +0.086 C 
ATOM     20  C   UNL     1     146.010 143.966  73.580  0.00  0.00    +0.308 C 
ATOM     21  C   UNL     1     141.316 143.875  72.615  0.00  0.00    +0.132 C 
ATOM     22  C   UNL     1     139.922 142.198  73.904  0.00  0.00    +0.018 C 
ATOM     23  C   UNL     1     142.780 144.186  72.302  0.00  0.00    +0.032 C 
ATOM     24  C   UNL     1     144.280 145.697  74.551  0.00  0.00    +0.176 C 
ATOM     25  C   UNL     1     143.413 145.539  72.081  0.00  0.00    +0.006 C 
ATOM     26  C   UNL     1     143.574 146.360  73.342  0.00  0.00    +0.045 C 
ENDROOT
BRANCH  24  27
ATOM     27  C   UNL     1     143.345 144.938  75.499  0.00  0.00    +0.041 C 
ATOM     28  C   UNL     1     142.048 145.694  75.734  0.00  0.00    +0.007 C 
ENDBRANCH  24  27
BRANCH  10  29
ATOM     29  O   UNL     1     144.407 141.515  66.978  0.00  0.00    -0.345 OA
BRANCH  29  31
ATOM     30  O   UNL     1     144.408 143.460  65.784  0.00  0.00    -0.343 OA
ATOM     31  C   UNL     1     143.958 142.116  65.788  0.00  0.00    +0.282 C 
ATOM     32  C   UNL     1     142.501 141.824  65.376  0.00  0.00    +0.205 C 
ATOM     33  C   UNL     1     141.563 142.948  65.827  0.00  0.00    +0.179 C 
ATOM     34  C   UNL     1     143.579 144.467  66.341  0.00  0.00    +0.150 C 
ATOM     35  C   UNL     1     142.158 144.382  65.757  0.00  0.00    +0.177 C 
ATOM     36  C   UNL     1     143.722 144.634  67.850  0.00  0.00    +0.041 C 
BRANCH  32  37
ATOM     37  O   UNL     1     142.273 141.288  64.054  0.00  0.00    -0.372 OA
ATOM     38  C   UNL     1     143.308 140.657  63.325  0.00  0.00    +0.194 C 
ENDBRANCH  32  37
BRANCH  33  39
ATOM     39  O   UNL     1     140.271 142.834  65.218  0.00  0.00    -0.386 OA
ATOM     40  H   UNL     1     140.057 141.882  65.168  0.00  0.00    +0.210 HD
ENDBRANCH  33  39
BRANCH  35  41
ATOM     41  O   UNL     1     142.061 144.906  64.414  0.00  0.00    -0.375 OA
ATOM     42  C   UNL     1     142.553 146.216  64.157  0.00  0.00    +0.194 C 
ENDBRANCH  35  41
ENDBRANCH  29  31
ENDBRANCH  10  29
BRANCH  21  43
ATOM     43  O   UNL     1     140.324 144.128  71.620  0.00  0.00    -0.347 OA
BRANCH  43  45
ATOM     44  O   UNL     1     138.730 145.431  70.605  0.00  0.00    -0.347 OA
ATOM     45  C   UNL     1     139.311 145.085  71.856  0.00  0.00    +0.251 C 
ATOM     46  C   UNL     1     139.790 146.263  72.734  0.00  0.00    +0.063 C 
ATOM     47  C   UNL     1     139.979 147.620  72.092  0.00  0.00    +0.026 C 
ATOM     48  C   UNL     1     139.157 147.815  70.830  0.00  0.00    +0.085 C 
ATOM     49  C   UNL     1     139.309 146.547  69.945  0.00  0.00    +0.135 C 
ATOM     50  C   UNL     1     140.750 146.236  69.515  0.00  0.00    +0.039 C 
BRANCH  48  51
ATOM     51  N   UNL     1     137.774 148.277  71.144  0.00  0.00    -0.303 NA
ATOM     52  C   UNL     1     137.792 149.446  72.018  0.00  0.00    +0.105 C 
ATOM     53  C   UNL     1     136.866 148.521  70.025  0.00  0.00    +0.105 C 
ENDBRANCH  48  51
ENDBRANCH  43  45
ENDBRANCH  21  43
TORSDOF 9
ENDMDL
MODEL 9
REMARK VINA RESULT:      -6.7     22.304     27.105
REMARK  Name = 
REMARK  18 active torsions:
REMARK  status: ('A' for Active; 'I' for Inactive)
REMARK    1  A    between atoms: O_1  and  C_18
REMARK    2  A    between atoms: O_1  and  C_27
REMARK    3  A    between atoms: O_5  and  C_30
REMARK    4  A    between atoms: O_5  and  C_44
REMARK    5  A    between atoms: O_6  and  C_31
REMARK    6  A    between atoms: O_6  and  C_41
REMARK    7  A    between atoms: O_8  and  C_32
REMARK    8  A    between atoms: O_9  and  C_35
REMARK    9  A    between atoms: O_9  and  C_49
REMARK   10  A    between atoms: N_11  and  C_46
REMARK   11  A    between atoms: N_11  and  C_51
REMARK   12  A    between atoms: N_11  and  C_52
REMARK   13  A    between atoms: C_20  and  C_25
REMARK   14  A    between atoms: C_28  and  C_33
REMARK   15  A    between atoms: C_34  and  C_40
REMARK   16  A    between atoms: C_37  and  C_42
REMARK   17  A    between atoms: C_42  and  C_48
REMARK   18  A    between atoms: C_47  and  C_50
REMARK                            x       y       z     vdW  Elec       q    Type
REMARK                         _______ _______ _______ _____ _____    ______ ____
ROOT
ATOM      1  O   UNL     1     110.783 128.810  67.225  0.00  0.00    -0.292 OA
ATOM      2  O   UNL     1     115.525 129.551  67.258  0.00  0.00    -0.461 OA
ATOM      3  O   UNL     1     116.126 127.458  67.647  0.00  0.00    -0.251 OA
ATOM      4  C   UNL     1     112.893 123.916  65.362  0.00  0.00    +0.006 C 
ATOM      5  C   UNL     1     112.229 124.554  66.577  0.00  0.00    +0.023 C 
ATOM      6  C   UNL     1     114.191 123.126  65.681  0.00  0.00    +0.021 C 
ATOM      7  C   UNL     1     113.245 125.277  67.516  0.00  0.00    +0.027 C 
ATOM      8  C   UNL     1     112.010 122.895  64.595  0.00  0.00    +0.036 C 
ATOM      9  C   UNL     1     113.851 121.675  65.352  0.00  0.00    +0.039 C 
ATOM     10  C   UNL     1     113.057 121.910  64.062  0.00  0.00    +0.122 C 
ATOM     11  C   UNL     1     113.289 126.731  66.954  0.00  0.00    +0.040 C 
ATOM     12  C   UNL     1     114.924 123.454  66.935  0.00  0.00    -0.073 C 
ATOM     13  C   UNL     1     111.303 125.676  66.178  0.00  0.00    -0.015 C 
ATOM     14  C   UNL     1     114.550 124.528  67.676  0.00  0.00    -0.023 C 
ATOM     15  C   UNL     1     111.851 126.873  66.435  0.00  0.00    -0.004 C 
ATOM     16  C   UNL     1     113.805 127.858  67.893  0.00  0.00    +0.129 C 
ATOM     17  C   UNL     1     116.188 122.670  67.135  0.00  0.00    +0.039 C 
ATOM     18  C   UNL     1     111.111 128.165  66.232  0.00  0.00    +0.164 C 
ATOM     19  C   UNL     1     110.842 128.670  64.798  0.00  0.00    +0.086 C 
ATOM     20  C   UNL     1     115.220 128.272  67.537  0.00  0.00    +0.308 C 
ATOM     21  C   UNL     1     112.086 129.266  64.050  0.00  0.00    +0.132 C 
ATOM     22  C   UNL     1     109.693 129.699  64.759  0.00  0.00    +0.018 C 
ATOM     23  C   UNL     1     113.387 128.688  64.608  0.00  0.00    +0.032 C 
ATOM     24  C   UNL     1     114.993 130.637  66.401  0.00  0.00    +0.176 C 
ATOM     25  C   UNL     1     114.801 129.104  64.282  0.00  0.00    +0.006 C 
ATOM     26  C   UNL     1     115.210 130.432  64.881  0.00  0.00    +0.045 C 
ENDROOT
BRANCH  24  27
ATOM     27  C   UNL     1     113.621 131.204  66.780  0.00  0.00    +0.041 C 
ATOM     28  C   UNL     1     113.216 132.352  65.870  0.00  0.00    +0.007 C 
ENDBRANCH  24  27
BRANCH  10  29
ATOM     29  O   UNL     1     113.819 122.701  63.160  0.00  0.00    -0.345 OA
BRANCH  29  31
ATOM     30  O   UNL     1     113.936 121.600  61.165  0.00  0.00    -0.343 OA
ATOM     31  C   UNL     1     113.616 122.838  61.775  0.00  0.00    +0.282 C 
ATOM     32  C   UNL     1     114.139 124.137  61.129  0.00  0.00    +0.205 C 
ATOM     33  C   UNL     1     115.520 123.926  60.502  0.00  0.00    +0.179 C 
ATOM     34  C   UNL     1     115.264 121.372  60.722  0.00  0.00    +0.150 C 
ATOM     35  C   UNL     1     115.748 122.538  59.842  0.00  0.00    +0.177 C 
ATOM     36  C   UNL     1     116.207 120.854  61.803  0.00  0.00    +0.041 C 
BRANCH  32  37
ATOM     37  O   UNL     1     113.203 124.931  60.368  0.00  0.00    -0.372 OA
ATOM     38  C   UNL     1     112.812 126.222  60.795  0.00  0.00    +0.194 C 
ENDBRANCH  32  37
BRANCH  33  39
ATOM     39  O   UNL     1     115.895 125.026  59.664  0.00  0.00    -0.386 OA
ATOM     40  H   UNL     1     116.737 124.786  59.229  0.00  0.00    +0.210 HD
ENDBRANCH  33  39
BRANCH  35  41
ATOM     41  O   UNL     1     115.193 122.513  58.508  0.00  0.00    -0.375 OA
ATOM     42  C   UNL     1     115.437 121.376  57.688  0.00  0.00    +0.194 C 
ENDBRANCH  35  41
ENDBRANCH  29  31
ENDBRANCH  10  29
BRANCH  21  43
ATOM     43  O   UNL     1     111.777 129.075  62.669  0.00  0.00    -0.347 OA
BRANCH  43  45
ATOM     44  O   UNL     1     110.420 130.602  61.622  0.00  0.00    -0.347 OA
ATOM     45  C   UNL     1     111.767 130.178  61.785  0.00  0.00    +0.251 C 
ATOM     46  C   UNL     1     112.560 129.914  60.486  0.00  0.00    +0.063 C 
ATOM     47  C   UNL     1     111.798 129.736  59.191  0.00  0.00    +0.026 C 
ATOM     48  C   UNL     1     110.425 130.385  59.199  0.00  0.00    +0.085 C 
ATOM     49  C   UNL     1     109.719 130.019  60.534  0.00  0.00    +0.135 C 
ATOM     50  C   UNL     1     109.519 128.513  60.760  0.00  0.00    +0.039 C 
BRANCH  48  51
ATOM     51  N   UNL     1     110.501 131.828  58.830  0.00  0.00    -0.303 NA
ATOM     52  C   UNL     1     111.341 132.031  57.654  0.00  0.00    +0.105 C 
ATOM     53  C   UNL     1     109.244 132.555  58.660  0.00  0.00    +0.105 C 
ENDBRANCH  48  51
ENDBRANCH  43  45
ENDBRANCH  21  43
TORSDOF 9
ENDMDL
MODEL 10
REMARK VINA RESULT:      -6.6     22.378     26.743
REMARK  Name = 
REMARK  18 active torsions:
REMARK  status: ('A' for Active; 'I' for Inactive)
REMARK    1  A    between atoms: O_1  and  C_18
REMARK    2  A    between atoms: O_1  and  C_27
REMARK    3  A    between atoms: O_5  and  C_30
REMARK    4  A    between atoms: O_5  and  C_44
REMARK    5  A    between atoms: O_6  and  C_31
REMARK    6  A    between atoms: O_6  and  C_41
REMARK    7  A    between atoms: O_8  and  C_32
REMARK    8  A    between atoms: O_9  and  C_35
REMARK    9  A    between atoms: O_9  and  C_49
REMARK   10  A    between atoms: N_11  and  C_46
REMARK   11  A    between atoms: N_11  and  C_51
REMARK   12  A    between atoms: N_11  and  C_52
REMARK   13  A    between atoms: C_20  and  C_25
REMARK   14  A    between atoms: C_28  and  C_33
REMARK   15  A    between atoms: C_34  and  C_40
REMARK   16  A    between atoms: C_37  and  C_42
REMARK   17  A    between atoms: C_42  and  C_48
REMARK   18  A    between atoms: C_47  and  C_50
REMARK                            x       y       z     vdW  Elec       q    Type
REMARK                         _______ _______ _______ _____ _____    ______ ____
ROOT
ATOM      1  O   UNL     1     106.827 131.115  34.569  0.00  0.00    -0.292 OA
ATOM      2  O   UNL     1     109.752 134.858  35.249  0.00  0.00    -0.461 OA
ATOM      3  O   UNL     1     110.385 135.097  33.143  0.00  0.00    -0.251 OA
ATOM      4  C   UNL     1     106.532 133.920  29.679  0.00  0.00    +0.006 C 
ATOM      5  C   UNL     1     107.105 132.655  30.306  0.00  0.00    +0.023 C 
ATOM      6  C   UNL     1     107.560 134.756  28.867  0.00  0.00    +0.021 C 
ATOM      7  C   UNL     1     108.483 132.890  31.001  0.00  0.00    +0.027 C 
ATOM      8  C   UNL     1     105.367 133.686  28.682  0.00  0.00    +0.036 C 
ATOM      9  C   UNL     1     107.063 134.685  27.426  0.00  0.00    +0.039 C 
ATOM     10  C   UNL     1     105.561 134.841  27.691  0.00  0.00    +0.122 C 
ATOM     11  C   UNL     1     108.093 133.268  32.463  0.00  0.00    +0.040 C 
ATOM     12  C   UNL     1     109.007 134.575  29.166  0.00  0.00    -0.073 C 
ATOM     13  C   UNL     1     106.249 132.163  31.446  0.00  0.00    -0.015 C 
ATOM     14  C   UNL     1     109.389 133.827  30.233  0.00  0.00    -0.023 C 
ATOM     15  C   UNL     1     106.810 132.442  32.632  0.00  0.00    -0.004 C 
ATOM     16  C   UNL     1     109.175 133.106  33.569  0.00  0.00    +0.129 C 
ATOM     17  C   UNL     1     109.919 135.455  28.363  0.00  0.00    +0.039 C 
ATOM     18  C   UNL     1     106.225 131.979  33.936  0.00  0.00    +0.164 C 
ATOM     19  C   UNL     1     104.934 132.638  34.467  0.00  0.00    +0.086 C 
ATOM     20  C   UNL     1     109.762 134.446  33.970  0.00  0.00    +0.308 C 
ATOM     21  C   UNL     1     105.109 134.081  35.059  0.00  0.00    +0.132 C 
ATOM     22  C   UNL     1     104.225 131.751  35.511  0.00  0.00    +0.018 C 
ATOM     23  C   UNL     1     106.332 134.774  34.455  0.00  0.00    +0.032 C 
ATOM     24  C   UNL     1     108.771 134.958  36.355  0.00  0.00    +0.176 C 
ATOM     25  C   UNL     1     106.942 136.095  34.858  0.00  0.00    +0.006 C 
ATOM     26  C   UNL     1     107.692 136.055  36.172  0.00  0.00    +0.045 C 
ENDROOT
BRANCH  24  27
ATOM     27  C   UNL     1     108.248 133.639  36.934  0.00  0.00    +0.041 C 
ATOM     28  C   UNL     1     107.289 133.873  38.090  0.00  0.00    +0.007 C 
ENDBRANCH  24  27
BRANCH  10  29
ATOM     29  O   UNL     1     105.325 135.994  28.487  0.00  0.00    -0.345 OA
BRANCH  29  31
ATOM     30  O   UNL     1     104.012 137.236  29.880  0.00  0.00    -0.343 OA
ATOM     31  C   UNL     1     104.139 136.747  28.555  0.00  0.00    +0.282 C 
ATOM     32  C   UNL     1     102.897 136.140  27.870  0.00  0.00    +0.205 C 
ATOM     33  C   UNL     1     102.015 135.400  28.880  0.00  0.00    +0.179 C 
ATOM     34  C   UNL     1     103.311 136.460  30.838  0.00  0.00    +0.150 C 
ATOM     35  C   UNL     1     101.934 136.042  30.293  0.00  0.00    +0.177 C 
ATOM     36  C   UNL     1     104.159 135.396  31.526  0.00  0.00    +0.041 C 
BRANCH  32  37
ATOM     37  O   UNL     1     102.212 136.948  26.889  0.00  0.00    -0.372 OA
ATOM     38  C   UNL     1     102.504 138.323  26.731  0.00  0.00    +0.194 C 
ENDBRANCH  32  37
BRANCH  33  39
ATOM     39  O   UNL     1     100.735 135.075  28.326  0.00  0.00    -0.386 OA
ATOM     40  H   UNL     1     100.268 135.918  28.160  0.00  0.00    +0.210 HD
ENDBRANCH  33  39
BRANCH  35  41
ATOM     41  O   UNL     1     100.966 137.115  30.308  0.00  0.00    -0.375 OA
ATOM     42  C   UNL     1     100.511 137.606  31.564  0.00  0.00    +0.194 C 
ENDBRANCH  35  41
ENDBRANCH  29  31
ENDBRANCH  10  29
BRANCH  21  43
ATOM     43  O   UNL     1     103.822 134.676  34.894  0.00  0.00    -0.347 OA
BRANCH  43  45
ATOM     44  O   UNL     1     102.112 136.060  35.551  0.00  0.00    -0.347 OA
ATOM     45  C   UNL     1     103.120 135.171  36.016  0.00  0.00    +0.251 C 
ATOM     46  C   UNL     1     104.056 135.719  37.117  0.00  0.00    +0.063 C 
ATOM     47  C   UNL     1     104.114 137.213  37.346  0.00  0.00    +0.026 C 
ATOM     48  C   UNL     1     102.867 137.948  36.886  0.00  0.00    +0.085 C 
ATOM     49  C   UNL     1     102.485 137.427  35.472  0.00  0.00    +0.135 C 
ATOM     50  C   UNL     1     103.566 137.634  34.401  0.00  0.00    +0.039 C 
BRANCH  48  51
ATOM     51  N   UNL     1     101.807 137.937  37.935  0.00  0.00    -0.303 NA
ATOM     52  C   UNL     1     102.346 138.326  39.235  0.00  0.00    +0.105 C 
ATOM     53  C   UNL     1     100.580 138.688  37.674  0.00  0.00    +0.105 C 
ENDBRANCH  48  51
ENDBRANCH  43  45
ENDBRANCH  21  43
TORSDOF 9
ENDMDL
MODEL 11
REMARK VINA RESULT:      -6.6     23.417     27.931
REMARK  Name = 
REMARK  18 active torsions:
REMARK  status: ('A' for Active; 'I' for Inactive)
REMARK    1  A    between atoms: O_1  and  C_18
REMARK    2  A    between atoms: O_1  and  C_27
REMARK    3  A    between atoms: O_5  and  C_30
REMARK    4  A    between atoms: O_5  and  C_44
REMARK    5  A    between atoms: O_6  and  C_31
REMARK    6  A    between atoms: O_6  and  C_41
REMARK    7  A    between atoms: O_8  and  C_32
REMARK    8  A    between atoms: O_9  and  C_35
REMARK    9  A    between atoms: O_9  and  C_49
REMARK   10  A    between atoms: N_11  and  C_46
REMARK   11  A    between atoms: N_11  and  C_51
REMARK   12  A    between atoms: N_11  and  C_52
REMARK   13  A    between atoms: C_20  and  C_25
REMARK   14  A    between atoms: C_28  and  C_33
REMARK   15  A    between atoms: C_34  and  C_40
REMARK   16  A    between atoms: C_37  and  C_42
REMARK   17  A    between atoms: C_42  and  C_48
REMARK   18  A    between atoms: C_47  and  C_50
REMARK                            x       y       z     vdW  Elec       q    Type
REMARK                         _______ _______ _______ _____ _____    ______ ____
ROOT
ATOM      1  O   UNL     1     110.538 122.127  64.147  0.00  0.00    -0.292 OA
ATOM      2  O   UNL     1     114.551 119.541  63.659  0.00  0.00    -0.461 OA
ATOM      3  O   UNL     1     115.943 121.031  64.517  0.00  0.00    -0.251 OA
ATOM      4  C   UNL     1     113.764 123.881  68.435  0.00  0.00    +0.006 C 
ATOM      5  C   UNL     1     113.225 124.320  67.078  0.00  0.00    +0.023 C 
ATOM      6  C   UNL     1     115.296 124.068  68.607  0.00  0.00    +0.021 C 
ATOM      7  C   UNL     1     114.103 123.827  65.886  0.00  0.00    +0.027 C 
ATOM      8  C   UNL     1     113.155 124.626  69.652  0.00  0.00    +0.036 C 
ATOM      9  C   UNL     1     115.436 125.121  69.703  0.00  0.00    +0.039 C 
ATOM     10  C   UNL     1     114.328 124.629  70.641  0.00  0.00    +0.122 C 
ATOM     11  C   UNL     1     113.483 122.442  65.526  0.00  0.00    +0.040 C 
ATOM     12  C   UNL     1     116.137 124.152  67.382  0.00  0.00    -0.073 C 
ATOM     13  C   UNL     1     111.890 123.686  66.779  0.00  0.00    -0.015 C 
ATOM     14  C   UNL     1     115.588 123.899  66.166  0.00  0.00    -0.023 C 
ATOM     15  C   UNL     1     112.012 122.693  65.886  0.00  0.00    -0.004 C 
ATOM     16  C   UNL     1     113.765 121.865  64.109  0.00  0.00    +0.129 C 
ATOM     17  C   UNL     1     117.608 124.288  67.649  0.00  0.00    +0.039 C 
ATOM     18  C   UNL     1     110.829 121.953  65.328  0.00  0.00    +0.164 C 
ATOM     19  C   UNL     1     110.062 120.959  66.226  0.00  0.00    +0.086 C 
ATOM     20  C   UNL     1     114.805 120.763  64.155  0.00  0.00    +0.308 C 
ATOM     21  C   UNL     1     110.789 119.594  66.495  0.00  0.00    +0.132 C 
ATOM     22  C   UNL     1     108.645 120.675  65.686  0.00  0.00    +0.018 C 
ATOM     23  C   UNL     1     112.304 119.746  66.350  0.00  0.00    +0.032 C 
ATOM     24  C   UNL     1     113.474 118.527  63.755  0.00  0.00    +0.176 C 
ATOM     25  C   UNL     1     113.350 118.658  66.371  0.00  0.00    +0.006 C 
ATOM     26  C   UNL     1     113.381 117.804  65.122  0.00  0.00    +0.045 C 
ENDROOT
BRANCH  24  27
ATOM     27  C   UNL     1     112.123 118.896  63.133  0.00  0.00    +0.041 C 
ATOM     28  C   UNL     1     112.279 119.394  61.706  0.00  0.00    +0.007 C 
ENDBRANCH  24  27
BRANCH  10  29
ATOM     29  O   UNL     1     114.513 123.250  70.929  0.00  0.00    -0.345 OA
BRANCH  29  31
ATOM     30  O   UNL     1     113.872 121.194  71.683  0.00  0.00    -0.343 OA
ATOM     31  C   UNL     1     114.044 122.551  72.056  0.00  0.00    +0.282 C 
ATOM     32  C   UNL     1     112.936 123.236  72.881  0.00  0.00    +0.205 C 
ATOM     33  C   UNL     1     111.550 122.722  72.480  0.00  0.00    +0.179 C 
ATOM     34  C   UNL     1     112.615 120.773  71.176  0.00  0.00    +0.150 C 
ATOM     35  C   UNL     1     111.478 121.213  72.114  0.00  0.00    +0.177 C 
ATOM     36  C   UNL     1     112.434 120.998  69.679  0.00  0.00    +0.041 C 
BRANCH  32  37
ATOM     37  O   UNL     1     113.169 123.421  74.294  0.00  0.00    -0.372 OA
ATOM     38  C   UNL     1     114.184 124.287  74.767  0.00  0.00    +0.194 C 
ENDBRANCH  32  37
BRANCH  33  39
ATOM     39  O   UNL     1     110.544 123.132  73.414  0.00  0.00    -0.386 OA
ATOM     40  H   UNL     1     110.235 122.330  73.879  0.00  0.00    +0.210 HD
ENDBRANCH  33  39
BRANCH  35  41
ATOM     41  O   UNL     1     111.379 120.405  73.308  0.00  0.00    -0.375 OA
ATOM     42  C   UNL     1     111.130 119.012  73.170  0.00  0.00    +0.194 C 
ENDBRANCH  35  41
ENDBRANCH  29  31
ENDBRANCH  10  29
BRANCH  21  43
ATOM     43  O   UNL     1     110.250 119.160  67.743  0.00  0.00    -0.347 OA
BRANCH  43  45
ATOM     44  O   UNL     1     109.501 117.525  69.170  0.00  0.00    -0.347 OA
ATOM     45  C   UNL     1     109.506 117.961  67.817  0.00  0.00    +0.251 C 
ATOM     46  C   UNL     1     109.945 116.916  66.766  0.00  0.00    +0.063 C 
ATOM     47  C   UNL     1     110.691 115.685  67.231  0.00  0.00    +0.026 C 
ATOM     48  C   UNL     1     110.433 115.331  68.686  0.00  0.00    +0.085 C 
ATOM     49  C   UNL     1     110.542 116.630  69.532  0.00  0.00    +0.135 C 
ATOM     50  C   UNL     1     111.908 117.327  69.461  0.00  0.00    +0.039 C 
BRANCH  48  51
ATOM     51  N   UNL     1     109.199 114.509  68.838  0.00  0.00    -0.303 NA
ATOM     52  C   UNL     1     108.900 113.771  67.614  0.00  0.00    +0.105 C 
ATOM     53  C   UNL     1     109.120 113.602  69.982  0.00  0.00    +0.105 C 
ENDBRANCH  48  51
ENDBRANCH  43  45
ENDBRANCH  21  43
TORSDOF 9
ENDMDL
MODEL 12
REMARK VINA RESULT:      -6.6      2.222      6.903
REMARK  Name = 
REMARK  18 active torsions:
REMARK  status: ('A' for Active; 'I' for Inactive)
REMARK    1  A    between atoms: O_1  and  C_18
REMARK    2  A    between atoms: O_1  and  C_27
REMARK    3  A    between atoms: O_5  and  C_30
REMARK    4  A    between atoms: O_5  and  C_44
REMARK    5  A    between atoms: O_6  and  C_31
REMARK    6  A    between atoms: O_6  and  C_41
REMARK    7  A    between atoms: O_8  and  C_32
REMARK    8  A    between atoms: O_9  and  C_35
REMARK    9  A    between atoms: O_9  and  C_49
REMARK   10  A    between atoms: N_11  and  C_46
REMARK   11  A    between atoms: N_11  and  C_51
REMARK   12  A    between atoms: N_11  and  C_52
REMARK   13  A    between atoms: C_20  and  C_25
REMARK   14  A    between atoms: C_28  and  C_33
REMARK   15  A    between atoms: C_34  and  C_40
REMARK   16  A    between atoms: C_37  and  C_42
REMARK   17  A    between atoms: C_42  and  C_48
REMARK   18  A    between atoms: C_47  and  C_50
REMARK                            x       y       z     vdW  Elec       q    Type
REMARK                         _______ _______ _______ _____ _____    ______ ____
ROOT
ATOM      1  O   UNL     1     101.707 111.215  42.922  0.00  0.00    -0.292 OA
ATOM      2  O   UNL     1     103.272 112.127  38.478  0.00  0.00    -0.461 OA
ATOM      3  O   UNL     1     104.701 113.728  39.014  0.00  0.00    -0.251 OA
ATOM      4  C   UNL     1     107.024 112.935  43.726  0.00  0.00    +0.006 C 
ATOM      5  C   UNL     1     105.576 113.381  43.901  0.00  0.00    +0.023 C 
ATOM      6  C   UNL     1     107.930 113.968  43.001  0.00  0.00    +0.021 C 
ATOM      7  C   UNL     1     104.975 114.017  42.608  0.00  0.00    +0.027 C 
ATOM      8  C   UNL     1     107.779 112.634  45.048  0.00  0.00    +0.036 C 
ATOM      9  C   UNL     1     108.948 114.394  44.054  0.00  0.00    +0.039 C 
ATOM     10  C   UNL     1     109.218 113.024  44.685  0.00  0.00    +0.122 C 
ATOM     11  C   UNL     1     104.360 112.797  41.856  0.00  0.00    +0.040 C 
ATOM     12  C   UNL     1     107.279 114.990  42.136  0.00  0.00    -0.073 C 
ATOM     13  C   UNL     1     104.659 112.208  44.141  0.00  0.00    -0.015 C 
ATOM     14  C   UNL     1     105.952 114.901  41.865  0.00  0.00    -0.023 C 
ATOM     15  C   UNL     1     103.945 111.916  43.043  0.00  0.00    -0.004 C 
ATOM     16  C   UNL     1     103.268 113.079  40.784  0.00  0.00    +0.129 C 
ATOM     17  C   UNL     1     108.238 115.914  41.444  0.00  0.00    +0.039 C 
ATOM     18  C   UNL     1     102.879 110.858  43.027  0.00  0.00    +0.164 C 
ATOM     19  C   UNL     1     103.284 109.370  43.077  0.00  0.00    +0.086 C 
ATOM     20  C   UNL     1     103.826 112.956  39.379  0.00  0.00    +0.308 C 
ATOM     21  C   UNL     1     103.880 108.789  41.746  0.00  0.00    +0.132 C 
ATOM     22  C   UNL     1     102.115 108.473  43.536  0.00  0.00    +0.018 C 
ATOM     23  C   UNL     1     104.502 109.898  40.897  0.00  0.00    +0.032 C 
ATOM     24  C   UNL     1     102.827 110.714  38.424  0.00  0.00    +0.176 C 
ATOM     25  C   UNL     1     105.040 109.797  39.491  0.00  0.00    +0.006 C 
ATOM     26  C   UNL     1     103.972 109.671  38.426  0.00  0.00    +0.045 C 
ENDROOT
BRANCH  24  27
ATOM     27  C   UNL     1     101.618 110.339  39.287  0.00  0.00    +0.041 C 
ATOM     28  C   UNL     1     100.432 111.252  39.020  0.00  0.00    +0.007 C 
ENDBRANCH  24  27
BRANCH  10  29
ATOM     29  O   UNL     1     109.564 112.085  43.676  0.00  0.00    -0.345 OA
BRANCH  29  31
ATOM     30  O   UNL     1     109.947 109.962  42.930  0.00  0.00    -0.343 OA
ATOM     31  C   UNL     1     110.412 110.971  43.812  0.00  0.00    +0.282 C 
ATOM     32  C   UNL     1     110.801 110.572  45.250  0.00  0.00    +0.205 C 
ATOM     33  C   UNL     1     109.900 109.450  45.776  0.00  0.00    +0.179 C 
ATOM     34  C   UNL     1     108.999 109.018  43.402  0.00  0.00    +0.150 C 
ATOM     35  C   UNL     1     109.472 108.389  44.724  0.00  0.00    +0.177 C 
ATOM     36  C   UNL     1     107.549 109.484  43.311  0.00  0.00    +0.041 C 
BRANCH  32  37
ATOM     37  O   UNL     1     112.207 110.464  45.559  0.00  0.00    -0.372 OA
ATOM     38  C   UNL     1     112.971 111.598  45.922  0.00  0.00    +0.194 C 
ENDBRANCH  32  37
BRANCH  33  39
ATOM     39  O   UNL     1     110.416 108.880  46.985  0.00  0.00    -0.386 OA
ATOM     40  H   UNL     1     109.656 108.524  47.485  0.00  0.00    +0.210 HD
ENDBRANCH  33  39
BRANCH  35  41
ATOM     41  O   UNL     1     110.513 107.403  44.545  0.00  0.00    -0.375 OA
ATOM     42  C   UNL     1     110.161 106.025  44.581  0.00  0.00    +0.194 C 
ENDBRANCH  35  41
ENDBRANCH  29  31
ENDBRANCH  10  29
BRANCH  21  43
ATOM     43  O   UNL     1     104.701 107.706  42.184  0.00  0.00    -0.347 OA
BRANCH  43  45
ATOM     44  O   UNL     1     105.667 105.649  41.856  0.00  0.00    -0.347 OA
ATOM     45  C   UNL     1     104.468 106.398  41.702  0.00  0.00    +0.251 C 
ATOM     46  C   UNL     1     103.830 106.381  40.295  0.00  0.00    +0.063 C 
ATOM     47  C   UNL     1     104.671 105.934  39.119  0.00  0.00    +0.026 C 
ATOM     48  C   UNL     1     105.829 105.032  39.509  0.00  0.00    +0.085 C 
ATOM     49  C   UNL     1     106.544 105.656  40.739  0.00  0.00    +0.135 C 
ATOM     50  C   UNL     1     107.113 107.062  40.503  0.00  0.00    +0.039 C 
BRANCH  48  51
ATOM     51  N   UNL     1     105.402 103.606  39.608  0.00  0.00    -0.303 NA
ATOM     52  C   UNL     1     104.777 103.154  38.368  0.00  0.00    +0.105 C 
ATOM     53  C   UNL     1     106.396 102.624  40.037  0.00  0.00    +0.105 C 
ENDBRANCH  48  51
ENDBRANCH  43  45
ENDBRANCH  21  43
TORSDOF 9
ENDMDL
MODEL 13
REMARK VINA RESULT:      -6.6     97.170    101.859
REMARK  Name = 
REMARK  18 active torsions:
REMARK  status: ('A' for Active; 'I' for Inactive)
REMARK    1  A    between atoms: O_1  and  C_18
REMARK    2  A    between atoms: O_1  and  C_27
REMARK    3  A    between atoms: O_5  and  C_30
REMARK    4  A    between atoms: O_5  and  C_44
REMARK    5  A    between atoms: O_6  and  C_31
REMARK    6  A    between atoms: O_6  and  C_41
REMARK    7  A    between atoms: O_8  and  C_32
REMARK    8  A    between atoms: O_9  and  C_35
REMARK    9  A    between atoms: O_9  and  C_49
REMARK   10  A    between atoms: N_11  and  C_46
REMARK   11  A    between atoms: N_11  and  C_51
REMARK   12  A    between atoms: N_11  and  C_52
REMARK   13  A    between atoms: C_20  and  C_25
REMARK   14  A    between atoms: C_28  and  C_33
REMARK   15  A    between atoms: C_34  and  C_40
REMARK   16  A    between atoms: C_37  and  C_42
REMARK   17  A    between atoms: C_42  and  C_48
REMARK   18  A    between atoms: C_47  and  C_50
REMARK                            x       y       z     vdW  Elec       q    Type
REMARK                         _______ _______ _______ _____ _____    ______ ____
ROOT
ATOM      1  O   UNL     1     137.924  98.689 142.529  0.00  0.00    -0.292 OA
ATOM      2  O   UNL     1     141.609  97.002 139.959  0.00  0.00    -0.461 OA
ATOM      3  O   UNL     1     141.477  94.900 140.637  0.00  0.00    -0.251 OA
ATOM      4  C   UNL     1     136.481  93.325 141.524  0.00  0.00    +0.006 C 
ATOM      5  C   UNL     1     136.964  94.252 142.633  0.00  0.00    +0.023 C 
ATOM      6  C   UNL     1     137.298  92.010 141.386  0.00  0.00    +0.021 C 
ATOM      7  C   UNL     1     138.516  94.416 142.657  0.00  0.00    +0.027 C 
ATOM      8  C   UNL     1     135.013  92.842 141.669  0.00  0.00    +0.036 C 
ATOM      9  C   UNL     1     136.312  90.903 141.749  0.00  0.00    +0.039 C 
ATOM     10  C   UNL     1     135.074  91.449 141.029  0.00  0.00    +0.122 C 
ATOM     11  C   UNL     1     138.767  95.638 141.720  0.00  0.00    +0.040 C 
ATOM     12  C   UNL     1     138.683  91.982 141.929  0.00  0.00    -0.073 C 
ATOM     13  C   UNL     1     136.493  95.668 142.418  0.00  0.00    -0.015 C 
ATOM     14  C   UNL     1     139.259  93.129 142.373  0.00  0.00    -0.023 C 
ATOM     15  C   UNL     1     137.488  96.450 141.972  0.00  0.00    -0.004 C 
ATOM     16  C   UNL     1     140.115  96.400 141.864  0.00  0.00    +0.129 C 
ATOM     17  C   UNL     1     139.407  90.686 141.710  0.00  0.00    +0.039 C 
ATOM     18  C   UNL     1     137.329  97.930 141.768  0.00  0.00    +0.164 C 
ATOM     19  C   UNL     1     136.483  98.447 140.584  0.00  0.00    +0.086 C 
ATOM     20  C   UNL     1     141.072  96.050 140.741  0.00  0.00    +0.308 C 
ATOM     21  C   UNL     1     137.156  98.325 139.172  0.00  0.00    +0.132 C 
ATOM     22  C   UNL     1     136.029  99.905 140.799  0.00  0.00    +0.018 C 
ATOM     23  C   UNL     1     138.195  97.203 139.158  0.00  0.00    +0.032 C 
ATOM     24  C   UNL     1     141.135  98.176 139.188  0.00  0.00    +0.176 C 
ATOM     25  C   UNL     1     139.170  96.856 138.059  0.00  0.00    +0.006 C 
ATOM     26  C   UNL     1     140.318  97.833 137.918  0.00  0.00    +0.045 C 
ENDROOT
BRANCH  24  27
ATOM     27  C   UNL     1     140.594  99.359 139.998  0.00  0.00    +0.041 C 
ATOM     28  C   UNL     1     141.339  99.528 141.312  0.00  0.00    +0.007 C 
ENDBRANCH  24  27
BRANCH  10  29
ATOM     29  O   UNL     1     135.386  91.728 139.671  0.00  0.00    -0.345 OA
BRANCH  29  31
ATOM     30  O   UNL     1     136.007  90.624 137.773  0.00  0.00    -0.343 OA
ATOM     31  C   UNL     1     134.894  91.061 138.535  0.00  0.00    +0.282 C 
ATOM     32  C   UNL     1     133.714  91.729 137.801  0.00  0.00    +0.205 C 
ATOM     33  C   UNL     1     134.202  92.560 136.610  0.00  0.00    +0.179 C 
ATOM     34  C   UNL     1     136.534  91.477 136.770  0.00  0.00    +0.150 C 
ATOM     35  C   UNL     1     135.414  91.971 135.837  0.00  0.00    +0.177 C 
ATOM     36  C   UNL     1     137.541  92.502 137.281  0.00  0.00    +0.041 C 
BRANCH  32  37
ATOM     37  O   UNL     1     132.524  90.940 137.588  0.00  0.00    -0.372 OA
ATOM     38  C   UNL     1     132.598  89.598 137.145  0.00  0.00    +0.194 C 
ENDBRANCH  32  37
BRANCH  33  39
ATOM     39  O   UNL     1     133.118  92.954 135.761  0.00  0.00    -0.386 OA
ATOM     40  H   UNL     1     132.406  92.293 135.873  0.00  0.00    +0.210 HD
ENDBRANCH  33  39
BRANCH  35  41
ATOM     41  O   UNL     1     134.975  90.968 134.894  0.00  0.00    -0.375 OA
ATOM     42  C   UNL     1     135.956  90.192 134.216  0.00  0.00    +0.194 C 
ENDBRANCH  35  41
ENDBRANCH  29  31
ENDBRANCH  10  29
BRANCH  21  43
ATOM     43  O   UNL     1     136.051  98.259 138.272  0.00  0.00    -0.347 OA
BRANCH  43  45
ATOM     44  O   UNL     1     135.738 100.303 137.275  0.00  0.00    -0.347 OA
ATOM     45  C   UNL     1     136.097  98.948 137.039  0.00  0.00    +0.251 C 
ATOM     46  C   UNL     1     135.320  98.224 135.916  0.00  0.00    +0.063 C 
ATOM     47  C   UNL     1     134.020  98.823 135.427  0.00  0.00    +0.026 C 
ATOM     48  C   UNL     1     133.909 100.318 135.672  0.00  0.00    +0.085 C 
ATOM     49  C   UNL     1     134.359 100.609 137.131  0.00  0.00    +0.135 C 
ATOM     50  C   UNL     1     133.529  99.901 138.211  0.00  0.00    +0.039 C 
BRANCH  48  51
ATOM     51  N   UNL     1     134.555 101.100 134.580  0.00  0.00    -0.303 NA
ATOM     52  C   UNL     1     134.721 102.501 134.958  0.00  0.00    +0.105 C 
ATOM     53  C   UNL     1     135.811 100.594 134.029  0.00  0.00    +0.105 C 
ENDBRANCH  48  51
ENDBRANCH  43  45
ENDBRANCH  21  43
TORSDOF 9
ENDMDL
MODEL 14
REMARK VINA RESULT:      -6.6     29.919     34.454
REMARK  Name = 
REMARK  18 active torsions:
REMARK  status: ('A' for Active; 'I' for Inactive)
REMARK    1  A    between atoms: O_1  and  C_18
REMARK    2  A    between atoms: O_1  and  C_27
REMARK    3  A    between atoms: O_5  and  C_30
REMARK    4  A    between atoms: O_5  and  C_44
REMARK    5  A    between atoms: O_6  and  C_31
REMARK    6  A    between atoms: O_6  and  C_41
REMARK    7  A    between atoms: O_8  and  C_32
REMARK    8  A    between atoms: O_9  and  C_35
REMARK    9  A    between atoms: O_9  and  C_49
REMARK   10  A    between atoms: N_11  and  C_46
REMARK   11  A    between atoms: N_11  and  C_51
REMARK   12  A    between atoms: N_11  and  C_52
REMARK   13  A    between atoms: C_20  and  C_25
REMARK   14  A    between atoms: C_28  and  C_33
REMARK   15  A    between atoms: C_34  and  C_40
REMARK   16  A    between atoms: C_37  and  C_42
REMARK   17  A    between atoms: C_42  and  C_48
REMARK   18  A    between atoms: C_47  and  C_50
REMARK                            x       y       z     vdW  Elec       q    Type
REMARK                         _______ _______ _______ _____ _____    ______ ____
ROOT
ATOM      1  O   UNL     1     129.492 114.262  63.888  0.00  0.00    -0.292 OA
ATOM      2  O   UNL     1     127.698 118.700  63.556  0.00  0.00    -0.461 OA
ATOM      3  O   UNL     1     125.703 118.253  64.403  0.00  0.00    -0.251 OA
ATOM      4  C   UNL     1     125.852 114.534  68.194  0.00  0.00    +0.006 C 
ATOM      5  C   UNL     1     126.038 113.913  66.815  0.00  0.00    +0.023 C 
ATOM      6  C   UNL     1     124.491 115.256  68.394  0.00  0.00    +0.021 C 
ATOM      7  C   UNL     1     125.601 114.862  65.655  0.00  0.00    +0.027 C 
ATOM      8  C   UNL     1     125.923 113.533  69.377  0.00  0.00    +0.036 C 
ATOM      9  C   UNL     1     123.773 114.438  69.463  0.00  0.00    +0.039 C 
ATOM     10  C   UNL     1     124.964 114.171  70.390  0.00  0.00    +0.122 C 
ATOM     11  C   UNL     1     126.904 115.650  65.320  0.00  0.00    +0.040 C 
ATOM     12  C   UNL     1     123.753 115.714  67.185  0.00  0.00    -0.073 C 
ATOM     13  C   UNL     1     127.494 113.674  66.505  0.00  0.00    -0.015 C 
ATOM     14  C   UNL     1     124.346 115.648  65.965  0.00  0.00    -0.023 C 
ATOM     15  C   UNL     1     127.964 114.586  65.641  0.00  0.00    -0.004 C 
ATOM     16  C   UNL     1     127.004 116.332  63.926  0.00  0.00    +0.129 C 
ATOM     17  C   UNL     1     122.473 116.440  67.480  0.00  0.00    +0.039 C 
ATOM     18  C   UNL     1     129.356 114.531  65.079  0.00  0.00    +0.164 C 
ATOM     19  C   UNL     1     130.557 114.871  65.988  0.00  0.00    +0.086 C 
ATOM     20  C   UNL     1     126.787 117.830  64.024  0.00  0.00    +0.308 C 
ATOM     21  C   UNL     1     130.748 116.395  66.309  0.00  0.00    +0.132 C 
ATOM     22  C   UNL     1     131.878 114.307  65.426  0.00  0.00    +0.018 C 
ATOM     23  C   UNL     1     129.422 117.147  66.193  0.00  0.00    +0.032 C 
ATOM     24  C   UNL     1     129.162 118.906  63.657  0.00  0.00    +0.176 C 
ATOM     25  C   UNL     1     129.192 118.638  66.266  0.00  0.00    +0.006 C 
ATOM     26  C   UNL     1     129.656 119.396  65.041  0.00  0.00    +0.045 C 
ENDROOT
BRANCH  24  27
ATOM     27  C   UNL     1     130.054 117.850  62.997  0.00  0.00    +0.041 C 
ATOM     28  C   UNL     1     129.679 117.629  61.540  0.00  0.00    +0.007 C 
ENDBRANCH  24  27
BRANCH  10  29
ATOM     29  O   UNL     1     125.606 115.394  70.720  0.00  0.00    -0.345 OA
BRANCH  29  31
ATOM     30  O   UNL     1     127.266 116.712  71.566  0.00  0.00    -0.343 OA
ATOM     31  C   UNL     1     126.354 115.672  71.878  0.00  0.00    +0.282 C 
ATOM     32  C   UNL     1     126.867 114.456  72.676  0.00  0.00    +0.205 C 
ATOM     33  C   UNL     1     128.315 114.121  72.303  0.00  0.00    +0.179 C 
ATOM     34  C   UNL     1     128.556 116.376  71.083  0.00  0.00    +0.150 C 
ATOM     35  C   UNL     1     129.227 115.342  72.005  0.00  0.00    +0.177 C 
ATOM     36  C   UNL     1     128.622 116.140  69.578  0.00  0.00    +0.041 C 
BRANCH  32  37
ATOM     37  O   UNL     1     126.531 114.384  74.078  0.00  0.00    -0.372 OA
ATOM     38  C   UNL     1     125.188 114.440  74.519  0.00  0.00    +0.194 C 
ENDBRANCH  32  37
BRANCH  33  39
ATOM     39  O   UNL     1     128.893 113.185  73.221  0.00  0.00    -0.386 OA
ATOM     40  H   UNL     1     128.222 112.496  73.395  0.00  0.00    +0.210 HD
ENDBRANCH  33  39
BRANCH  35  41
ATOM     41  O   UNL     1     129.727 115.914  73.234  0.00  0.00    -0.375 OA
ATOM     42  C   UNL     1     130.763 116.888  73.162  0.00  0.00    +0.194 C 
ENDBRANCH  35  41
ENDBRANCH  29  31
ENDBRANCH  10  29
BRANCH  21  43
ATOM     43  O   UNL     1     131.440 116.397  67.557  0.00  0.00    -0.347 OA
BRANCH  43  45
ATOM     44  O   UNL     1     133.007 117.242  69.007  0.00  0.00    -0.347 OA
ATOM     45  C   UNL     1     132.746 116.932  67.644  0.00  0.00    +0.251 C 
ATOM     46  C   UNL     1     132.999 118.067  66.627  0.00  0.00    +0.063 C 
ATOM     47  C   UNL     1     133.115 119.488  67.134  0.00  0.00    +0.026 C 
ATOM     48  C   UNL     1     133.533 119.580  68.591  0.00  0.00    +0.085 C 
ATOM     49  C   UNL     1     132.687 118.566  69.409  0.00  0.00    +0.135 C 
ATOM     50  C   UNL     1     131.171 118.801  69.348  0.00  0.00    +0.039 C 
BRANCH  48  51
ATOM     51  N   UNL     1     135.016 119.521  68.738  0.00  0.00    -0.303 NA
ATOM     52  C   UNL     1     135.687 119.876  67.492  0.00  0.00    +0.105 C 
ATOM     53  C   UNL     1     135.622 120.263  69.843  0.00  0.00    +0.105 C 
ENDBRANCH  48  51
ENDBRANCH  43  45
ENDBRANCH  21  43
TORSDOF 9
ENDMDL
MODEL 15
REMARK VINA RESULT:      -6.6     23.328     28.307
REMARK  Name = 
REMARK  18 active torsions:
REMARK  status: ('A' for Active; 'I' for Inactive)
REMARK    1  A    between atoms: O_1  and  C_18
REMARK    2  A    between atoms: O_1  and  C_27
REMARK    3  A    between atoms: O_5  and  C_30
REMARK    4  A    between atoms: O_5  and  C_44
REMARK    5  A    between atoms: O_6  and  C_31
REMARK    6  A    between atoms: O_6  and  C_41
REMARK    7  A    between atoms: O_8  and  C_32
REMARK    8  A    between atoms: O_9  and  C_35
REMARK    9  A    between atoms: O_9  and  C_49
REMARK   10  A    between atoms: N_11  and  C_46
REMARK   11  A    between atoms: N_11  and  C_51
REMARK   12  A    between atoms: N_11  and  C_52
REMARK   13  A    between atoms: C_20  and  C_25
REMARK   14  A    between atoms: C_28  and  C_33
REMARK   15  A    between atoms: C_34  and  C_40
REMARK   16  A    between atoms: C_37  and  C_42
REMARK   17  A    between atoms: C_42  and  C_48
REMARK   18  A    between atoms: C_47  and  C_50
REMARK                            x       y       z     vdW  Elec       q    Type
REMARK                         _______ _______ _______ _____ _____    ______ ____
ROOT
ATOM      1  O   UNL     1     124.179 114.469  63.319  0.00  0.00    -0.292 OA
ATOM      2  O   UNL     1     121.926 110.834  61.140  0.00  0.00    -0.461 OA
ATOM      3  O   UNL     1     122.898 109.196  62.264  0.00  0.00    -0.251 OA
ATOM      4  C   UNL     1     123.939 110.485  67.312  0.00  0.00    +0.006 C 
ATOM      5  C   UNL     1     124.909 111.178  66.363  0.00  0.00    +0.023 C 
ATOM      6  C   UNL     1     124.002 108.933  67.273  0.00  0.00    +0.021 C 
ATOM      7  C   UNL     1     124.929 110.539  64.939  0.00  0.00    +0.027 C 
ATOM      8  C   UNL     1     124.133 110.832  68.813  0.00  0.00    +0.036 C 
ATOM      9  C   UNL     1     124.508 108.533  68.656  0.00  0.00    +0.039 C 
ATOM     10  C   UNL     1     123.701 109.528  69.497  0.00  0.00    +0.122 C 
ATOM     11  C   UNL     1     123.829 111.333  64.169  0.00  0.00    +0.040 C 
ATOM     12  C   UNL     1     124.561 108.282  66.057  0.00  0.00    -0.073 C 
ATOM     13  C   UNL     1     124.486 112.596  66.074  0.00  0.00    -0.015 C 
ATOM     14  C   UNL     1     124.843 109.028  64.959  0.00  0.00    -0.023 C 
ATOM     15  C   UNL     1     123.945 112.704  64.851  0.00  0.00    -0.004 C 
ATOM     16  C   UNL     1     123.879 111.323  62.614  0.00  0.00    +0.129 C 
ATOM     17  C   UNL     1     124.540 106.782  66.095  0.00  0.00    +0.039 C 
ATOM     18  C   UNL     1     123.528 114.021  64.261  0.00  0.00    +0.164 C 
ATOM     19  C   UNL     1     122.271 114.734  64.805  0.00  0.00    +0.086 C 
ATOM     20  C   UNL     1     122.830 110.395  62.032  0.00  0.00    +0.308 C 
ATOM     21  C   UNL     1     120.900 114.105  64.372  0.00  0.00    +0.132 C 
ATOM     22  C   UNL     1     122.268 116.236  64.453  0.00  0.00    +0.018 C 
ATOM     23  C   UNL     1     121.061 112.622  64.037  0.00  0.00    +0.032 C 
ATOM     24  C   UNL     1     120.988 111.974  61.009  0.00  0.00    +0.176 C 
ATOM     25  C   UNL     1     120.036 111.691  63.436  0.00  0.00    +0.006 C 
ATOM     26  C   UNL     1     119.770 111.928  61.965  0.00  0.00    +0.045 C 
ENDROOT
BRANCH  24  27
ATOM     27  C   UNL     1     121.612 113.363  60.835  0.00  0.00    +0.041 C 
ATOM     28  C   UNL     1     120.551 114.441  60.683  0.00  0.00    +0.007 C 
ENDBRANCH  24  27
BRANCH  10  29
ATOM     29  O   UNL     1     122.322 109.432  69.171  0.00  0.00    -0.345 OA
BRANCH  29  31
ATOM     30  O   UNL     1     120.151 110.131  69.274  0.00  0.00    -0.343 OA
ATOM     31  C   UNL     1     121.231 109.622  70.039  0.00  0.00    +0.282 C 
ATOM     32  C   UNL     1     121.542 110.274  71.402  0.00  0.00    +0.205 C 
ATOM     33  C   UNL     1     121.267 111.780  71.371  0.00  0.00    +0.179 C 
ATOM     34  C   UNL     1     120.003 111.535  69.140  0.00  0.00    +0.150 C 
ATOM     35  C   UNL     1     120.044 112.218  70.518  0.00  0.00    +0.177 C 
ATOM     36  C   UNL     1     120.827 112.149  68.014  0.00  0.00    +0.041 C 
BRANCH  32  37
ATOM     37  O   UNL     1     121.125 109.570  72.592  0.00  0.00    -0.372 OA
ATOM     38  C   UNL     1     119.833 109.002  72.699  0.00  0.00    +0.194 C 
ENDBRANCH  32  37
BRANCH  33  39
ATOM     39  O   UNL     1     121.280 112.348  72.686  0.00  0.00    -0.386 OA
ATOM     40  H   UNL     1     121.617 113.262  72.604  0.00  0.00    +0.210 HD
ENDBRANCH  33  39
BRANCH  35  41
ATOM     41  O   UNL     1     118.820 112.060  71.269  0.00  0.00    -0.375 OA
ATOM     42  C   UNL     1     117.982 113.195  71.455  0.00  0.00    +0.194 C 
ENDBRANCH  35  41
ENDBRANCH  29  31
ENDBRANCH  10  29
BRANCH  21  43
ATOM     43  O   UNL     1     120.004 114.489  65.415  0.00  0.00    -0.347 OA
BRANCH  43  45
ATOM     44  O   UNL     1     117.931 115.096  66.193  0.00  0.00    -0.347 OA
ATOM     45  C   UNL     1     118.848 115.245  65.116  0.00  0.00    +0.251 C 
ATOM     46  C   UNL     1     118.292 114.959  63.703  0.00  0.00    +0.063 C 
ATOM     47  C   UNL     1     116.996 114.190  63.572  0.00  0.00    +0.026 C 
ATOM     48  C   UNL     1     116.110 114.277  64.803  0.00  0.00    +0.085 C 
ATOM     49  C   UNL     1     116.993 114.039  66.059  0.00  0.00    +0.135 C 
ATOM     50  C   UNL     1     117.700 112.676  66.095  0.00  0.00    +0.039 C 
BRANCH  48  51
ATOM     51  N   UNL     1     115.260 115.502  64.778  0.00  0.00    -0.303 NA
ATOM     52  C   UNL     1     114.746 115.763  63.437  0.00  0.00    +0.105 C 
ATOM     53  C   UNL     1     114.165 115.592  65.743  0.00  0.00    +0.105 C 
ENDBRANCH  48  51
ENDBRANCH  43  45
ENDBRANCH  21  43
TORSDOF 9
ENDMDL
MODEL 16
REMARK VINA RESULT:      -6.6     32.559     37.117
REMARK  Name = 
REMARK  18 active torsions:
REMARK  status: ('A' for Active; 'I' for Inactive)
REMARK    1  A    between atoms: O_1  and  C_18
REMARK    2  A    between atoms: O_1  and  C_27
REMARK    3  A    between atoms: O_5  and  C_30
REMARK    4  A    between atoms: O_5  and  C_44
REMARK    5  A    between atoms: O_6  and  C_31
REMARK    6  A    between atoms: O_6  and  C_41
REMARK    7  A    between atoms: O_8  and  C_32
REMARK    8  A    between atoms: O_9  and  C_35
REMARK    9  A    between atoms: O_9  and  C_49
REMARK   10  A    between atoms: N_11  and  C_46
REMARK   11  A    between atoms: N_11  and  C_51
REMARK   12  A    between atoms: N_11  and  C_52
REMARK   13  A    between atoms: C_20  and  C_25
REMARK   14  A    between atoms: C_28  and  C_33
REMARK   15  A    between atoms: C_34  and  C_40
REMARK   16  A    between atoms: C_37  and  C_42
REMARK   17  A    between atoms: C_42  and  C_48
REMARK   18  A    between atoms: C_47  and  C_50
REMARK                            x       y       z     vdW  Elec       q    Type
REMARK                         _______ _______ _______ _____ _____    ______ ____
ROOT
ATOM      1  O   UNL     1     130.447 126.661  63.994  0.00  0.00    -0.292 OA
ATOM      2  O   UNL     1     125.685 126.219  63.589  0.00  0.00    -0.461 OA
ATOM      3  O   UNL     1     125.529 124.171  64.412  0.00  0.00    -0.251 OA
ATOM      4  C   UNL     1     129.078 123.208  68.246  0.00  0.00    +0.006 C 
ATOM      5  C   UNL     1     129.747 123.222  66.877  0.00  0.00    +0.023 C 
ATOM      6  C   UNL     1     127.993 122.110  68.419  0.00  0.00    +0.021 C 
ATOM      7  C   UNL     1     128.729 123.087  65.701  0.00  0.00    +0.027 C 
ATOM      8  C   UNL     1     130.041 122.977  69.442  0.00  0.00    +0.036 C 
ATOM      9  C   UNL     1     128.555 121.176  69.487  0.00  0.00    +0.039 C 
ATOM     10  C   UNL     1     129.139 122.231  70.434  0.00  0.00    +0.122 C 
ATOM     11  C   UNL     1     128.354 124.566  65.375  0.00  0.00    +0.040 C 
ATOM     12  C   UNL     1     127.360 121.547  67.195  0.00  0.00    -0.073 C 
ATOM     13  C   UNL     1     130.398 124.551  66.590  0.00  0.00    -0.015 C 
ATOM     14  C   UNL     1     127.612 122.108  65.984  0.00  0.00    -0.023 C 
ATOM     15  C   UNL     1     129.671 125.272  65.723  0.00  0.00    -0.004 C 
ATOM     16  C   UNL     1     127.749 124.871  63.975  0.00  0.00    +0.129 C 
ATOM     17  C   UNL     1     126.294 120.526  67.464  0.00  0.00    +0.039 C 
ATOM     18  C   UNL     1     130.133 126.595  65.181  0.00  0.00    +0.164 C 
ATOM     19  C   UNL     1     130.138 127.834  66.102  0.00  0.00    +0.086 C 
ATOM     20  C   UNL     1     126.251 125.092  64.054  0.00  0.00    +0.308 C 
ATOM     21  C   UNL     1     128.728 128.451  66.409  0.00  0.00    +0.132 C 
ATOM     22  C   UNL     1     131.065 128.944  65.564  0.00  0.00    +0.018 C 
ATOM     23  C   UNL     1     127.629 127.398  66.266  0.00  0.00    +0.032 C 
ATOM     24  C   UNL     1     125.906 127.679  63.707  0.00  0.00    +0.176 C 
ATOM     25  C   UNL     1     126.134 127.605  66.319  0.00  0.00    +0.006 C 
ATOM     26  C   UNL     1     125.559 128.279  65.092  0.00  0.00    +0.045 C 
ENDROOT
BRANCH  24  27
ATOM     27  C   UNL     1     127.184 128.237  63.071  0.00  0.00    +0.041 C 
ATOM     28  C   UNL     1     127.084 128.280  61.555  0.00  0.00    +0.007 C 
ENDBRANCH  24  27
BRANCH  10  29
ATOM     29  O   UNL     1     128.147 123.194  70.759  0.00  0.00    -0.345 OA
BRANCH  29  31
ATOM     30  O   UNL     1     127.276 125.116  71.627  0.00  0.00    -0.343 OA
ATOM     31  C   UNL     1     128.087 123.991  71.917  0.00  0.00    +0.282 C 
ATOM     32  C   UNL     1     129.415 124.211  72.670  0.00  0.00    +0.205 C 
ATOM     33  C   UNL     1     130.062 125.541  72.272  0.00  0.00    +0.179 C 
ATOM     34  C   UNL     1     127.884 126.293  71.120  0.00  0.00    +0.150 C 
ATOM     35  C   UNL     1     129.075 126.710  72.001  0.00  0.00    +0.177 C 
ATOM     36  C   UNL     1     128.080 126.297  69.607  0.00  0.00    +0.041 C 
BRANCH  32  37
ATOM     37  O   UNL     1     129.453 123.873  74.074  0.00  0.00    -0.372 OA
ATOM     38  C   UNL     1     128.723 122.776  74.588  0.00  0.00    +0.194 C 
ENDBRANCH  32  37
BRANCH  33  39
ATOM     39  O   UNL     1     131.135 125.891  73.154  0.00  0.00    -0.386 OA
ATOM     40  H   UNL     1     131.024 125.366  73.970  0.00  0.00    +0.210 HD
ENDBRANCH  33  39
BRANCH  35  41
ATOM     41  O   UNL     1     128.674 127.333  73.242  0.00  0.00    -0.375 OA
ATOM     42  C   UNL     1     128.241 128.688  73.217  0.00  0.00    +0.194 C 
ENDBRANCH  35  41
ENDBRANCH  29  31
ENDBRANCH  10  29
BRANCH  21  43
ATOM     43  O   UNL     1     128.907 129.102  67.666  0.00  0.00    -0.347 OA
BRANCH  43  45
ATOM     44  O   UNL     1     128.447 130.838  69.097  0.00  0.00    -0.347 OA
ATOM     45  C   UNL     1     128.798 130.508  67.759  0.00  0.00    +0.251 C 
ATOM     46  C   UNL     1     127.909 131.117  66.652  0.00  0.00    +0.063 C 
ATOM     47  C   UNL     1     126.550 131.667  67.029  0.00  0.00    +0.026 C 
ATOM     48  C   UNL     1     126.444 132.076  68.488  0.00  0.00    +0.085 C 
ATOM     49  C   UNL     1     127.056 130.945  69.360  0.00  0.00    +0.135 C 
ATOM     50  C   UNL     1     126.368 129.580  69.211  0.00  0.00    +0.039 C 
BRANCH  48  51
ATOM     51  N   UNL     1     126.946 133.464  68.704  0.00  0.00    -0.303 NA
ATOM     52  C   UNL     1     126.612 134.330  67.578  0.00  0.00    +0.105 C 
ATOM     53  C   UNL     1     126.586 134.132  69.954  0.00  0.00    +0.105 C 
ENDBRANCH  48  51
ENDBRANCH  43  45
ENDBRANCH  21  43
TORSDOF 9
ENDMDL
MODEL 17
REMARK VINA RESULT:      -6.5     48.662     51.813
REMARK  Name = 
REMARK  18 active torsions:
REMARK  status: ('A' for Active; 'I' for Inactive)
REMARK    1  A    between atoms: O_1  and  C_18
REMARK    2  A    between atoms: O_1  and  C_27
REMARK    3  A    between atoms: O_5  and  C_30
REMARK    4  A    between atoms: O_5  and  C_44
REMARK    5  A    between atoms: O_6  and  C_31
REMARK    6  A    between atoms: O_6  and  C_41
REMARK    7  A    between atoms: O_8  and  C_32
REMARK    8  A    between atoms: O_9  and  C_35
REMARK    9  A    between atoms: O_9  and  C_49
REMARK   10  A    between atoms: N_11  and  C_46
REMARK   11  A    between atoms: N_11  and  C_51
REMARK   12  A    between atoms: N_11  and  C_52
REMARK   13  A    between atoms: C_20  and  C_25
REMARK   14  A    between atoms: C_28  and  C_33
REMARK   15  A    between atoms: C_34  and  C_40
REMARK   16  A    between atoms: C_37  and  C_42
REMARK   17  A    between atoms: C_42  and  C_48
REMARK   18  A    between atoms: C_47  and  C_50
REMARK                            x       y       z     vdW  Elec       q    Type
REMARK                         _______ _______ _______ _____ _____    ______ ____
ROOT
ATOM      1  O   UNL     1     147.480 129.277  63.959  0.00  0.00    -0.292 OA
ATOM      2  O   UNL     1     150.598 129.416  67.604  0.00  0.00    -0.461 OA
ATOM      3  O   UNL     1     150.323 127.328  68.280  0.00  0.00    -0.251 OA
ATOM      4  C   UNL     1     149.371 123.968  64.277  0.00  0.00    +0.006 C 
ATOM      5  C   UNL     1     148.146 124.827  64.569  0.00  0.00    +0.023 C 
ATOM      6  C   UNL     1     149.819 123.066  65.460  0.00  0.00    +0.021 C 
ATOM      7  C   UNL     1     148.211 125.525  65.963  0.00  0.00    +0.027 C 
ATOM      8  C   UNL     1     149.209 122.980  63.091  0.00  0.00    +0.036 C 
ATOM      9  C   UNL     1     149.598 121.640  64.963  0.00  0.00    +0.039 C 
ATOM     10  C   UNL     1     150.105 121.813  63.527  0.00  0.00    +0.122 C 
ATOM     11  C   UNL     1     148.915 126.883  65.657  0.00  0.00    +0.040 C 
ATOM     12  C   UNL     1     149.399 123.449  66.835  0.00  0.00    -0.073 C 
ATOM     13  C   UNL     1     148.053 125.999  63.625  0.00  0.00    -0.015 C 
ATOM     14  C   UNL     1     148.790 124.644  67.048  0.00  0.00    -0.023 C 
ATOM     15  C   UNL     1     148.416 127.140  64.228  0.00  0.00    -0.004 C 
ATOM     16  C   UNL     1     148.733 128.043  66.677  0.00  0.00    +0.129 C 
ATOM     17  C   UNL     1     149.915 122.543  67.915  0.00  0.00    +0.039 C 
ATOM     18  C   UNL     1     148.323 128.480  63.554  0.00  0.00    +0.164 C 
ATOM     19  C   UNL     1     149.318 128.837  62.430  0.00  0.00    +0.086 C 
ATOM     20  C   UNL     1     149.972 128.230  67.532  0.00  0.00    +0.308 C 
ATOM     21  C   UNL     1     150.776 129.176  62.903  0.00  0.00    +0.132 C 
ATOM     22  C   UNL     1     148.796 129.988  61.547  0.00  0.00    +0.018 C 
ATOM     23  C   UNL     1     151.082 128.512  64.246  0.00  0.00    +0.032 C 
ATOM     24  C   UNL     1     151.093 130.448  66.663  0.00  0.00    +0.176 C 
ATOM     25  C   UNL     1     152.299 128.704  65.118  0.00  0.00    +0.006 C 
ATOM     26  C   UNL     1     152.339 130.034  65.840  0.00  0.00    +0.045 C 
ENDROOT
BRANCH  24  27
ATOM     27  C   UNL     1     150.034 131.225  65.873  0.00  0.00    +0.041 C 
ATOM     28  C   UNL     1     150.663 132.287  64.985  0.00  0.00    +0.007 C 
ENDBRANCH  24  27
BRANCH  10  29
ATOM     29  O   UNL     1     151.404 122.386  63.536  0.00  0.00    -0.345 OA
BRANCH  29  31
ATOM     30  O   UNL     1     153.261 123.366  62.641  0.00  0.00    -0.343 OA
ATOM     31  C   UNL     1     152.401 122.242  62.554  0.00  0.00    +0.282 C 
ATOM     32  C   UNL     1     151.932 121.776  61.161  0.00  0.00    +0.205 C 
ATOM     33  C   UNL     1     151.735 122.966  60.217  0.00  0.00    +0.179 C 
ATOM     34  C   UNL     1     152.973 124.515  61.861  0.00  0.00    +0.150 C 
ATOM     35  C   UNL     1     152.751 124.129  60.388  0.00  0.00    +0.177 C 
ATOM     36  C   UNL     1     151.980 125.478  62.504  0.00  0.00    +0.041 C 
BRANCH  32  37
ATOM     37  O   UNL     1     152.565 120.607  60.597  0.00  0.00    -0.372 OA
ATOM     38  C   UNL     1     153.427 119.791  61.368  0.00  0.00    +0.194 C 
ENDBRANCH  32  37
BRANCH  33  39
ATOM     39  O   UNL     1     151.575 122.542  58.858  0.00  0.00    -0.386 OA
ATOM     40  H   UNL     1     150.913 121.823  58.855  0.00  0.00    +0.210 HD
ENDBRANCH  33  39
BRANCH  35  41
ATOM     41  O   UNL     1     153.980 123.837  59.685  0.00  0.00    -0.375 OA
ATOM     42  C   UNL     1     155.203 123.855  60.411  0.00  0.00    +0.194 C 
ENDBRANCH  35  41
ENDBRANCH  29  31
ENDBRANCH  10  29
BRANCH  21  43
ATOM     43  O   UNL     1     151.585 128.859  61.770  0.00  0.00    -0.347 OA
BRANCH  43  45
ATOM     44  O   UNL     1     153.479 129.226  60.526  0.00  0.00    -0.347 OA
ATOM     45  C   UNL     1     152.375 129.859  61.160  0.00  0.00    +0.251 C 
ATOM     46  C   UNL     1     152.716 131.023  62.118  0.00  0.00    +0.063 C 
ATOM     47  C   UNL     1     154.137 131.162  62.619  0.00  0.00    +0.026 C 
ATOM     48  C   UNL     1     155.168 130.515  61.710  0.00  0.00    +0.085 C 
ATOM     49  C   UNL     1     154.654 129.103  61.313  0.00  0.00    +0.135 C 
ATOM     50  C   UNL     1     154.419 128.152  62.496  0.00  0.00    +0.039 C 
BRANCH  48  51
ATOM     51  N   UNL     1     155.581 131.434  60.611  0.00  0.00    -0.303 NA
ATOM     52  C   UNL     1     156.059 132.709  61.138  0.00  0.00    +0.105 C 
ATOM     53  C   UNL     1     156.532 130.931  59.622  0.00  0.00    +0.105 C 
ENDBRANCH  48  51
ENDBRANCH  43  45
ENDBRANCH  21  43
TORSDOF 9
ENDMDL
MODEL 18
REMARK VINA RESULT:      -6.5    101.282    105.544
REMARK  Name = 
REMARK  18 active torsions:
REMARK  status: ('A' for Active; 'I' for Inactive)
REMARK    1  A    between atoms: O_1  and  C_18
REMARK    2  A    between atoms: O_1  and  C_27
REMARK    3  A    between atoms: O_5  and  C_30
REMARK    4  A    between atoms: O_5  and  C_44
REMARK    5  A    between atoms: O_6  and  C_31
REMARK    6  A    between atoms: O_6  and  C_41
REMARK    7  A    between atoms: O_8  and  C_32
REMARK    8  A    between atoms: O_9  and  C_35
REMARK    9  A    between atoms: O_9  and  C_49
REMARK   10  A    between atoms: N_11  and  C_46
REMARK   11  A    between atoms: N_11  and  C_51
REMARK   12  A    between atoms: N_11  and  C_52
REMARK   13  A    between atoms: C_20  and  C_25
REMARK   14  A    between atoms: C_28  and  C_33
REMARK   15  A    between atoms: C_34  and  C_40
REMARK   16  A    between atoms: C_37  and  C_42
REMARK   17  A    between atoms: C_42  and  C_48
REMARK   18  A    between atoms: C_47  and  C_50
REMARK                            x       y       z     vdW  Elec       q    Type
REMARK                         _______ _______ _______ _____ _____    ______ ____
ROOT
ATOM      1  O   UNL     1     149.236 126.275 138.628  0.00  0.00    -0.292 OA
ATOM      2  O   UNL     1     144.730 127.395 137.417  0.00  0.00    -0.461 OA
ATOM      3  O   UNL     1     144.180 128.401 139.309  0.00  0.00    -0.251 OA
ATOM      4  C   UNL     1     148.240 131.024 141.513  0.00  0.00    +0.006 C 
ATOM      5  C   UNL     1     148.402 129.519 141.694  0.00  0.00    +0.023 C 
ATOM      6  C   UNL     1     146.969 131.617 142.182  0.00  0.00    +0.021 C 
ATOM      7  C   UNL     1     147.078 128.730 141.446  0.00  0.00    +0.027 C 
ATOM      8  C   UNL     1     149.401 131.880 142.087  0.00  0.00    +0.036 C 
ATOM      9  C   UNL     1     147.503 132.536 143.277  0.00  0.00    +0.039 C 
ATOM     10  C   UNL     1     148.671 133.162 142.506  0.00  0.00    +0.122 C 
ATOM     11  C   UNL     1     147.127 128.409 139.921  0.00  0.00    +0.040 C 
ATOM     12  C   UNL     1     145.831 130.701 142.467  0.00  0.00    -0.073 C 
ATOM     13  C   UNL     1     149.327 128.931 140.658  0.00  0.00    -0.015 C 
ATOM     14  C   UNL     1     145.853 129.428 141.995  0.00  0.00    -0.023 C 
ATOM     15  C   UNL     1     148.642 128.271 139.712  0.00  0.00    -0.004 C 
ATOM     16  C   UNL     1     146.243 127.242 139.395  0.00  0.00    +0.129 C 
ATOM     17  C   UNL     1     144.634 131.373 143.072  0.00  0.00    +0.039 C 
ATOM     18  C   UNL     1     149.314 127.501 138.612  0.00  0.00    +0.164 C 
ATOM     19  C   UNL     1     150.021 128.265 137.471  0.00  0.00    +0.086 C 
ATOM     20  C   UNL     1     145.010 127.759 138.680  0.00  0.00    +0.308 C 
ATOM     21  C   UNL     1     149.069 128.937 136.420  0.00  0.00    +0.132 C 
ATOM     22  C   UNL     1     151.038 127.374 136.729  0.00  0.00    +0.018 C 
ATOM     23  C   UNL     1     147.699 129.231 137.034  0.00  0.00    +0.032 C 
ATOM     24  C   UNL     1     145.445 127.313 136.122  0.00  0.00    +0.176 C 
ATOM     25  C   UNL     1     146.456 129.724 136.333  0.00  0.00    +0.006 C 
ATOM     26  C   UNL     1     145.775 128.681 135.473  0.00  0.00    +0.045 C 
ENDROOT
BRANCH  24  27
ATOM     27  C   UNL     1     146.561 126.269 136.015  0.00  0.00    +0.041 C 
ATOM     28  C   UNL     1     147.188 126.255 134.631  0.00  0.00    +0.007 C 
ENDBRANCH  24  27
BRANCH  10  29
ATOM     29  O   UNL     1     148.210 133.692 141.272  0.00  0.00    -0.345 OA
BRANCH  29  31
ATOM     30  O   UNL     1     148.342 134.601 139.183  0.00  0.00    -0.343 OA
ATOM     31  C   UNL     1     148.803 134.721 140.518  0.00  0.00    +0.282 C 
ATOM     32  C   UNL     1     150.305 134.975 140.761  0.00  0.00    +0.205 C 
ATOM     33  C   UNL     1     151.163 134.257 139.715  0.00  0.00    +0.179 C 
ATOM     34  C   UNL     1     149.080 133.809 138.267  0.00  0.00    +0.150 C 
ATOM     35  C   UNL     1     150.566 134.208 138.281  0.00  0.00    +0.177 C 
ATOM     36  C   UNL     1     148.740 132.322 138.305  0.00  0.00    +0.041 C 
BRANCH  32  37
ATOM     37  O   UNL     1     150.709 136.316 141.113  0.00  0.00    -0.372 OA
ATOM     38  C   UNL     1     150.805 136.726 142.464  0.00  0.00    +0.194 C 
ENDBRANCH  32  37
BRANCH  33  39
ATOM     39  O   UNL     1     152.524 134.701 139.753  0.00  0.00    -0.386 OA
ATOM     40  H   UNL     1     153.089 133.904 139.788  0.00  0.00    +0.210 HD
ENDBRANCH  33  39
BRANCH  35  41
ATOM     41  O   UNL     1     150.831 135.443 137.579  0.00  0.00    -0.375 OA
ATOM     42  C   UNL     1     151.429 135.380 136.289  0.00  0.00    +0.194 C 
ENDBRANCH  35  41
ENDBRANCH  29  31
ENDBRANCH  10  29
BRANCH  21  43
ATOM     43  O   UNL     1     149.843 130.017 135.899  0.00  0.00    -0.347 OA
BRANCH  43  45
ATOM     44  O   UNL     1     150.549 131.377 134.189  0.00  0.00    -0.347 OA
ATOM     45  C   UNL     1     150.195 130.043 134.530  0.00  0.00    +0.251 C 
ATOM     46  C   UNL     1     149.140 129.366 133.626  0.00  0.00    +0.063 C 
ATOM     47  C   UNL     1     148.288 130.233 132.725  0.00  0.00    +0.026 C 
ATOM     48  C   UNL     1     148.927 131.569 132.387  0.00  0.00    +0.085 C 
ATOM     49  C   UNL     1     149.493 132.187 133.695  0.00  0.00    +0.135 C 
ATOM     50  C   UNL     1     148.445 132.440 134.789  0.00  0.00    +0.039 C 
BRANCH  48  51
ATOM     51  N   UNL     1     149.851 131.454 131.222  0.00  0.00    -0.303 NA
ATOM     52  C   UNL     1     149.187 130.831 130.080  0.00  0.00    +0.105 C 
ATOM     53  C   UNL     1     150.546 132.662 130.779  0.00  0.00    +0.105 C 
ENDBRANCH  48  51
ENDBRANCH  43  45
ENDBRANCH  21  43
TORSDOF 9
ENDMDL
MODEL 19
REMARK VINA RESULT:      -6.5     94.051     98.333
REMARK  Name = 
REMARK  18 active torsions:
REMARK  status: ('A' for Active; 'I' for Inactive)
REMARK    1  A    between atoms: O_1  and  C_18
REMARK    2  A    between atoms: O_1  and  C_27
REMARK    3  A    between atoms: O_5  and  C_30
REMARK    4  A    between atoms: O_5  and  C_44
REMARK    5  A    between atoms: O_6  and  C_31
REMARK    6  A    between atoms: O_6  and  C_41
REMARK    7  A    between atoms: O_8  and  C_32
REMARK    8  A    between atoms: O_9  and  C_35
REMARK    9  A    between atoms: O_9  and  C_49
REMARK   10  A    between atoms: N_11  and  C_46
REMARK   11  A    between atoms: N_11  and  C_51
REMARK   12  A    between atoms: N_11  and  C_52
REMARK   13  A    between atoms: C_20  and  C_25
REMARK   14  A    between atoms: C_28  and  C_33
REMARK   15  A    between atoms: C_34  and  C_40
REMARK   16  A    between atoms: C_37  and  C_42
REMARK   17  A    between atoms: C_42  and  C_48
REMARK   18  A    between atoms: C_47  and  C_50
REMARK                            x       y       z     vdW  Elec       q    Type
REMARK                         _______ _______ _______ _____ _____    ______ ____
ROOT
ATOM      1  O   UNL     1      96.452 130.370 141.470  0.00  0.00    -0.292 OA
ATOM      2  O   UNL     1      92.134 128.341 140.955  0.00  0.00    -0.461 OA
ATOM      3  O   UNL     1      90.953 129.973 141.870  0.00  0.00    -0.251 OA
ATOM      4  C   UNL     1      92.982 134.786 140.902  0.00  0.00    +0.006 C 
ATOM      5  C   UNL     1      93.820 134.041 141.934  0.00  0.00    +0.023 C 
ATOM      6  C   UNL     1      91.514 135.050 141.336  0.00  0.00    +0.021 C 
ATOM      7  C   UNL     1      93.071 132.822 142.559  0.00  0.00    +0.027 C 
ATOM      8  C   UNL     1      93.518 136.191 140.516  0.00  0.00    +0.036 C 
ATOM      9  C   UNL     1      91.412 136.568 141.451  0.00  0.00    +0.039 C 
ATOM     10  C   UNL     1      92.221 136.950 140.206  0.00  0.00    +0.122 C 
ATOM     11  C   UNL     1      93.446 131.641 141.612  0.00  0.00    +0.040 C 
ATOM     12  C   UNL     1      90.926 134.181 142.392  0.00  0.00    -0.073 C 
ATOM     13  C   UNL     1      95.027 133.391 141.306  0.00  0.00    -0.015 C 
ATOM     14  C   UNL     1      91.607 133.091 142.829  0.00  0.00    -0.023 C 
ATOM     15  C   UNL     1      94.855 132.067 141.178  0.00  0.00    -0.004 C 
ATOM     16  C   UNL     1      93.294 130.193 142.159  0.00  0.00    +0.129 C 
ATOM     17  C   UNL     1      89.491 134.483 142.713  0.00  0.00    +0.039 C 
ATOM     18  C   UNL     1      95.937 131.154 140.675  0.00  0.00    +0.164 C 
ATOM     19  C   UNL     1      96.322 131.180 139.181  0.00  0.00    +0.086 C 
ATOM     20  C   UNL     1      92.056 129.516 141.601  0.00  0.00    +0.308 C 
ATOM     21  C   UNL     1      95.296 130.499 138.209  0.00  0.00    +0.132 C 
ATOM     22  C   UNL     1      97.720 130.576 138.938  0.00  0.00    +0.018 C 
ATOM     23  C   UNL     1      93.891 130.499 138.812  0.00  0.00    +0.032 C 
ATOM     24  C   UNL     1      92.948 127.745 139.869  0.00  0.00    +0.176 C 
ATOM     25  C   UNL     1      92.655 129.812 138.282  0.00  0.00    +0.006 C 
ATOM     26  C   UNL     1      92.660 128.308 138.455  0.00  0.00    +0.045 C 
ENDROOT
BRANCH  24  27
ATOM     27  C   UNL     1      94.431 127.504 140.172  0.00  0.00    +0.041 C 
ATOM     28  C   UNL     1      94.627 126.837 141.523  0.00  0.00    +0.007 C 
ENDBRANCH  24  27
BRANCH  10  29
ATOM     29  O   UNL     1      91.711 136.270 139.068  0.00  0.00    -0.345 OA
BRANCH  29  31
ATOM     30  O   UNL     1      91.861 135.546 136.909  0.00  0.00    -0.343 OA
ATOM     31  C   UNL     1      91.770 136.699 137.729  0.00  0.00    +0.282 C 
ATOM     32  C   UNL     1      92.697 137.894 137.429  0.00  0.00    +0.205 C 
ATOM     33  C   UNL     1      94.063 137.421 136.920  0.00  0.00    +0.179 C 
ATOM     34  C   UNL     1      93.142 135.040 136.569  0.00  0.00    +0.150 C 
ATOM     35  C   UNL     1      94.036 136.161 136.010  0.00  0.00    +0.177 C 
ATOM     36  C   UNL     1      93.742 134.101 137.610  0.00  0.00    +0.041 C 
BRANCH  32  37
ATOM     37  O   UNL     1      92.123 139.036 136.758  0.00  0.00    -0.372 OA
ATOM     38  C   UNL     1      91.334 138.887 135.593  0.00  0.00    +0.194 C 
ENDBRANCH  32  37
BRANCH  33  39
ATOM     39  O   UNL     1      94.828 138.502 136.377  0.00  0.00    -0.386 OA
ATOM     40  H   UNL     1      95.337 138.147 135.621  0.00  0.00    +0.210 HD
ENDBRANCH  33  39
BRANCH  35  41
ATOM     41  O   UNL     1      93.709 136.525 134.650  0.00  0.00    -0.375 OA
ATOM     42  C   UNL     1      94.357 135.838 133.586  0.00  0.00    +0.194 C 
ENDBRANCH  35  41
ENDBRANCH  29  31
ENDBRANCH  10  29
BRANCH  21  43
ATOM     43  O   UNL     1      95.517 131.158 136.962  0.00  0.00    -0.347 OA
BRANCH  43  45
ATOM     44  O   UNL     1      94.753 129.645 135.413  0.00  0.00    -0.347 OA
ATOM     45  C   UNL     1      94.611 130.976 135.893  0.00  0.00    +0.251 C 
ATOM     46  C   UNL     1      94.702 132.096 134.831  0.00  0.00    +0.063 C 
ATOM     47  C   UNL     1      95.305 131.773 133.482  0.00  0.00    +0.026 C 
ATOM     48  C   UNL     1      95.230 130.300 133.120  0.00  0.00    +0.085 C 
ATOM     49  C   UNL     1      95.681 129.469 134.353  0.00  0.00    +0.135 C 
ATOM     50  C   UNL     1      97.112 129.756 134.830  0.00  0.00    +0.039 C 
BRANCH  48  51
ATOM     51  N   UNL     1      93.920 129.956 132.496  0.00  0.00    -0.303 NA
ATOM     52  C   UNL     1      93.657 130.786 131.325  0.00  0.00    +0.105 C 
ATOM     53  C   UNL     1      93.670 128.554 132.163  0.00  0.00    +0.105 C 
ENDBRANCH  48  51
ENDBRANCH  43  45
ENDBRANCH  21  43
TORSDOF 9
ENDMDL
MODEL 20
REMARK VINA RESULT:      -6.5     93.479     97.780
REMARK  Name = 
REMARK  18 active torsions:
REMARK  status: ('A' for Active; 'I' for Inactive)
REMARK    1  A    between atoms: O_1  and  C_18
REMARK    2  A    between atoms: O_1  and  C_27
REMARK    3  A    between atoms: O_5  and  C_30
REMARK    4  A    between atoms: O_5  and  C_44
REMARK    5  A    between atoms: O_6  and  C_31
REMARK    6  A    between atoms: O_6  and  C_41
REMARK    7  A    between atoms: O_8  and  C_32
REMARK    8  A    between atoms: O_9  and  C_35
REMARK    9  A    between atoms: O_9  and  C_49
REMARK   10  A    between atoms: N_11  and  C_46
REMARK   11  A    between atoms: N_11  and  C_51
REMARK   12  A    between atoms: N_11  and  C_52
REMARK   13  A    between atoms: C_20  and  C_25
REMARK   14  A    between atoms: C_28  and  C_33
REMARK   15  A    between atoms: C_34  and  C_40
REMARK   16  A    between atoms: C_37  and  C_42
REMARK   17  A    between atoms: C_42  and  C_48
REMARK   18  A    between atoms: C_47  and  C_50
REMARK                            x       y       z     vdW  Elec       q    Type
REMARK                         _______ _______ _______ _____ _____    ______ ____
ROOT
ATOM      1  O   UNL     1      96.369 130.606 140.476  0.00  0.00    -0.292 OA
ATOM      2  O   UNL     1      93.617 134.504 139.955  0.00  0.00    -0.461 OA
ATOM      3  O   UNL     1      93.852 134.714 137.766  0.00  0.00    -0.251 OA
ATOM      4  C   UNL     1      94.258 130.041 135.271  0.00  0.00    +0.006 C 
ATOM      5  C   UNL     1      95.546 130.373 136.016  0.00  0.00    +0.023 C 
ATOM      6  C   UNL     1      93.881 131.058 134.159  0.00  0.00    +0.021 C 
ATOM      7  C   UNL     1      95.646 131.879 136.416  0.00  0.00    +0.027 C 
ATOM      8  C   UNL     1      94.260 128.671 134.542  0.00  0.00    +0.036 C 
ATOM      9  C   UNL     1      93.984 130.265 132.859  0.00  0.00    +0.039 C 
ATOM     10  C   UNL     1      93.353 128.952 133.337  0.00  0.00    +0.122 C 
ATOM     11  C   UNL     1      94.984 131.925 137.827  0.00  0.00    +0.040 C 
ATOM     12  C   UNL     1      94.446 132.432 134.240  0.00  0.00    -0.073 C 
ATOM     13  C   UNL     1      95.607 129.680 137.354  0.00  0.00    -0.015 C 
ATOM     14  C   UNL     1      95.130 132.818 135.348  0.00  0.00    -0.023 C 
ATOM     15  C   UNL     1      95.358 130.534 138.357  0.00  0.00    -0.004 C 
ATOM     16  C   UNL     1      95.317 133.134 138.748  0.00  0.00    +0.129 C 
ATOM     17  C   UNL     1      93.990 133.355 133.148  0.00  0.00    +0.039 C 
ATOM     18  C   UNL     1      95.453 130.137 139.803  0.00  0.00    +0.164 C 
ATOM     19  C   UNL     1      94.375 129.215 140.411  0.00  0.00    +0.086 C 
ATOM     20  C   UNL     1      94.175 134.130 138.791  0.00  0.00    +0.308 C 
ATOM     21  C   UNL     1      92.987 129.893 140.688  0.00  0.00    +0.132 C 
ATOM     22  C   UNL     1      94.867 128.533 141.704  0.00  0.00    +0.018 C 
ATOM     23  C   UNL     1      92.776 131.099 139.772  0.00  0.00    +0.032 C 
ATOM     24  C   UNL     1      93.087 133.844 141.172  0.00  0.00    +0.176 C 
ATOM     25  C   UNL     1      91.658 132.112 139.817  0.00  0.00    +0.006 C 
ATOM     26  C   UNL     1      91.751 133.086 140.971  0.00  0.00    +0.045 C 
ENDROOT
BRANCH  24  27
ATOM     27  C   UNL     1      94.103 133.123 142.063  0.00  0.00    +0.041 C 
ATOM     28  C   UNL     1      93.616 133.016 143.499  0.00  0.00    +0.007 C 
ENDBRANCH  24  27
BRANCH  10  29
ATOM     29  O   UNL     1      92.090 129.209 133.934  0.00  0.00    -0.345 OA
BRANCH  29  31
ATOM     30  O   UNL     1      90.284 128.594 135.186  0.00  0.00    -0.343 OA
ATOM     31  C   UNL     1      90.982 128.344 133.978  0.00  0.00    +0.282 C 
ATOM     32  C   UNL     1      91.235 126.880 133.561  0.00  0.00    +0.205 C 
ATOM     33  C   UNL     1      91.475 125.990 134.784  0.00  0.00    +0.179 C 
ATOM     34  C   UNL     1      90.626 127.854 136.346  0.00  0.00    +0.150 C 
ATOM     35  C   UNL     1      90.637 126.346 136.044  0.00  0.00    +0.177 C 
ATOM     36  C   UNL     1      91.795 128.432 137.138  0.00  0.00    +0.041 C 
BRANCH  32  37
ATOM     37  O   UNL     1      90.404 126.327 132.518  0.00  0.00    -0.372 OA
ATOM     38  C   UNL     1      90.840 126.285 131.172  0.00  0.00    +0.194 C 
ENDBRANCH  32  37
BRANCH  33  39
ATOM     39  O   UNL     1      91.433 124.600 134.443  0.00  0.00    -0.386 OA
ATOM     40  H   UNL     1      92.270 124.200 134.752  0.00  0.00    +0.210 HD
ENDBRANCH  33  39
BRANCH  35  41
ATOM     41  O   UNL     1      89.312 125.775 135.949  0.00  0.00    -0.375 OA
ATOM     42  C   UNL     1      88.871 124.901 136.981  0.00  0.00    +0.194 C 
ENDBRANCH  35  41
ENDBRANCH  29  31
ENDBRANCH  10  29
BRANCH  21  43
ATOM     43  O   UNL     1      92.061 128.808 140.633  0.00  0.00    -0.347 OA
BRANCH  43  45
ATOM     44  O   UNL     1      90.150 127.732 141.314  0.00  0.00    -0.347 OA
ATOM     45  C   UNL     1      91.263 128.498 141.758  0.00  0.00    +0.251 C 
ATOM     46  C   UNL     1      90.935 129.737 142.622  0.00  0.00    +0.063 C 
ATOM     47  C   UNL     1      89.521 130.275 142.616  0.00  0.00    +0.026 C 
ATOM     48  C   UNL     1      88.478 129.240 142.233  0.00  0.00    +0.085 C 
ATOM     49  C   UNL     1      88.986 128.473 140.981  0.00  0.00    +0.135 C 
ATOM     50  C   UNL     1      89.236 129.354 139.749  0.00  0.00    +0.039 C 
BRANCH  48  51
ATOM     51  N   UNL     1      88.051 128.432 143.413  0.00  0.00    -0.303 NA
ATOM     52  C   UNL     1      87.338 129.253 144.386  0.00  0.00    +0.105 C 
ATOM     53  C   UNL     1      87.293 127.207 143.162  0.00  0.00    +0.105 C 
ENDBRANCH  48  51
ENDBRANCH  43  45
ENDBRANCH  21  43
TORSDOF 9
ENDMDL
