MODEL 1
REMARK VINA RESULT:      -8.4      0.000      0.000
REMARK  Name = 
REMARK  17 active torsions:
REMARK  status: ('A' for Active; 'I' for Inactive)
REMARK    1  A    between atoms: O_1  and  C_18
REMARK    2  A    between atoms: O_1  and  C_26
REMARK    3  A    between atoms: O_5  and  C_30
REMARK    4  A    between atoms: O_5  and  C_40
REMARK    5  A    between atoms: O_6  and  C_29
REMARK    6  A    between atoms: O_6  and  C_43
REMARK    7  A    between atoms: O_8  and  C_31
REMARK    8  A    between atoms: O_9  and  C_34
REMARK    9  A    between atoms: O_9  and  C_48
REMARK   10  A    between atoms: N_11  and  C_45
REMARK   11  A    between atoms: N_11  and  C_50
REMARK   12  A    between atoms: N_11  and  C_51
REMARK   13  A    between atoms: C_27  and  C_33
REMARK   14  A    between atoms: C_32  and  C_39
REMARK   15  A    between atoms: C_36  and  C_41
REMARK   16  A    between atoms: C_41  and  C_47
REMARK   17  A    between atoms: C_46  and  C_49
REMARK                            x       y       z     vdW  Elec       q    Type
REMARK                         _______ _______ _______ _____ _____    ______ ____
ROOT
ATOM      1  O   UNL     1     118.219 129.445 129.220  0.00  0.00    -0.292 OA
ATOM      2  O   UNL     1     115.718 128.087 123.409  0.00  0.00    -0.461 OA
ATOM      3  O   UNL     1     117.944 128.101 123.035  0.00  0.00    -0.251 OA
ATOM      4  C   UNL     1     121.797 128.292 126.092  0.00  0.00    +0.006 C 
ATOM      5  C   UNL     1     120.337 128.628 125.848  0.00  0.00    +0.023 C 
ATOM      6  C   UNL     1     122.110 128.487 127.560  0.00  0.00    +0.018 C 
ATOM      7  C   UNL     1     119.581 127.330 126.264  0.00  0.00    +0.027 C 
ATOM      8  C   UNL     1     122.856 128.955 125.244  0.00  0.00    +0.036 C 
ATOM      9  C   UNL     1     123.639 128.514 127.531  0.00  0.00    +0.039 C 
ATOM     10  C   UNL     1     123.947 129.314 126.242  0.00  0.00    +0.122 C 
ATOM     11  C   UNL     1     118.144 127.899 126.046  0.00  0.00    +0.040 C 
ATOM     12  C   UNL     1     119.465 129.619 126.716  0.00  0.00    -0.015 C 
ATOM     13  C   UNL     1     121.254 127.449 128.272  0.00  0.00    -0.027 C 
ATOM     14  C   UNL     1     120.116 126.935 127.709  0.00  0.00    -0.026 C 
ATOM     15  C   UNL     1     118.210 129.105 126.921  0.00  0.00    -0.004 C 
ATOM     16  C   UNL     1     117.136 127.119 125.156  0.00  0.00    +0.129 C 
ATOM     17  C   UNL     1     117.502 129.392 128.212  0.00  0.00    +0.164 C 
ATOM     18  C   UNL     1     115.985 129.551 128.391  0.00  0.00    +0.086 C 
ATOM     19  C   UNL     1     116.995 127.797 123.763  0.00  0.00    +0.308 C 
ATOM     20  C   UNL     1     115.230 130.631 127.598  0.00  0.00    +0.132 C 
ATOM     21  C   UNL     1     115.243 128.258 128.712  0.00  0.00    +0.018 C 
ATOM     22  C   UNL     1     113.928 130.269 126.837  0.00  0.00    +0.032 C 
ATOM     23  C   UNL     1     115.360 129.477 123.614  0.00  0.00    +0.176 C 
ATOM     24  C   UNL     1     113.864 130.614 125.346  0.00  0.00    +0.006 C 
ATOM     25  C   UNL     1     114.125 129.374 124.511  0.00  0.00    +0.045 C 
ENDROOT
BRANCH  23  26
ATOM     26  C   UNL     1     115.024 130.173 122.276  0.00  0.00    +0.041 C 
ATOM     27  C   UNL     1     116.213 130.905 121.659  0.00  0.00    +0.007 C 
ENDBRANCH  23  26
BRANCH  10  28
ATOM     28  O   UNL     1     125.247 129.036 125.772  0.00  0.00    -0.345 OA
BRANCH  28  30
ATOM     29  O   UNL     1     127.264 129.746 124.632  0.00  0.00    -0.343 OA
ATOM     30  C   UNL     1     126.132 130.110 125.421  0.00  0.00    +0.282 C 
ATOM     31  C   UNL     1     126.483 131.076 126.569  0.00  0.00    +0.205 C 
ATOM     32  C   UNL     1     127.627 130.532 127.430  0.00  0.00    +0.179 C 
ATOM     33  C   UNL     1     128.411 129.237 125.307  0.00  0.00    +0.150 C 
ATOM     34  C   UNL     1     128.810 129.967 126.616  0.00  0.00    +0.177 C 
ATOM     35  C   UNL     1     129.568 129.266 124.311  0.00  0.00    +0.041 C 
BRANCH  31  36
ATOM     36  O   UNL     1     126.713 132.451 126.159  0.00  0.00    -0.372 OA
ATOM     37  C   UNL     1     125.879 133.017 125.159  0.00  0.00    +0.194 C 
ENDBRANCH  31  36
BRANCH  32  38
ATOM     38  O   UNL     1     128.075 131.556 128.341  0.00  0.00    -0.386 OA
ATOM     39  H   UNL     1     128.942 131.868 128.013  0.00  0.00    +0.210 HD
ENDBRANCH  32  38
BRANCH  34  40
ATOM     40  O   UNL     1     129.723 129.210 127.440  0.00  0.00    -0.375 OA
ATOM     41  C   UNL     1     131.048 129.702 127.580  0.00  0.00    +0.194 C 
ENDBRANCH  34  40
ENDBRANCH  28  30
ENDBRANCH  10  28
BRANCH  20  42
ATOM     42  O   UNL     1     116.113 131.447 126.859  0.00  0.00    -0.347 OA
BRANCH  42  44
ATOM     43  O   UNL     1     115.061 133.448 127.653  0.00  0.00    -0.347 OA
ATOM     44  C   UNL     1     116.287 132.775 127.396  0.00  0.00    +0.251 C 
ATOM     45  C   UNL     1     117.388 133.500 126.631  0.00  0.00    +0.063 C 
ATOM     46  C   UNL     1     116.877 134.560 125.687  0.00  0.00    +0.026 C 
ATOM     47  C   UNL     1     115.814 135.472 126.303  0.00  0.00    +0.085 C 
ATOM     48  C   UNL     1     114.692 134.661 126.996  0.00  0.00    +0.135 C 
ATOM     49  C   UNL     1     113.491 134.474 126.058  0.00  0.00    +0.039 C 
BRANCH  47  50
ATOM     50  N   UNL     1     116.397 136.572 127.120  0.00  0.00    -0.303 NA
ATOM     51  C   UNL     1     116.973 137.602 126.241  0.00  0.00    +0.105 C 
ATOM     52  C   UNL     1     115.476 137.217 128.058  0.00  0.00    +0.105 C 
ENDBRANCH  47  50
ENDBRANCH  42  44
ENDBRANCH  20  42
TORSDOF 9
ENDMDL
MODEL 2
REMARK VINA RESULT:      -8.3     15.618     20.879
REMARK  Name = 
REMARK  17 active torsions:
REMARK  status: ('A' for Active; 'I' for Inactive)
REMARK    1  A    between atoms: O_1  and  C_18
REMARK    2  A    between atoms: O_1  and  C_26
REMARK    3  A    between atoms: O_5  and  C_30
REMARK    4  A    between atoms: O_5  and  C_40
REMARK    5  A    between atoms: O_6  and  C_29
REMARK    6  A    between atoms: O_6  and  C_43
REMARK    7  A    between atoms: O_8  and  C_31
REMARK    8  A    between atoms: O_9  and  C_34
REMARK    9  A    between atoms: O_9  and  C_48
REMARK   10  A    between atoms: N_11  and  C_45
REMARK   11  A    between atoms: N_11  and  C_50
REMARK   12  A    between atoms: N_11  and  C_51
REMARK   13  A    between atoms: C_27  and  C_33
REMARK   14  A    between atoms: C_32  and  C_39
REMARK   15  A    between atoms: C_36  and  C_41
REMARK   16  A    between atoms: C_41  and  C_47
REMARK   17  A    between atoms: C_46  and  C_49
REMARK                            x       y       z     vdW  Elec       q    Type
REMARK                         _______ _______ _______ _____ _____    ______ ____
ROOT
ATOM      1  O   UNL     1     128.520 116.234 129.240  0.00  0.00    -0.292 OA
ATOM      2  O   UNL     1     129.743 119.061 123.550  0.00  0.00    -0.461 OA
ATOM      3  O   UNL     1     127.975 117.729 123.108  0.00  0.00    -0.251 OA
ATOM      4  C   UNL     1     124.989 115.137 126.040  0.00  0.00    +0.006 C 
ATOM      5  C   UNL     1     126.359 115.755 125.830  0.00  0.00    +0.023 C 
ATOM      6  C   UNL     1     124.846 114.733 127.491  0.00  0.00    +0.018 C 
ATOM      7  C   UNL     1     126.181 117.229 126.307  0.00  0.00    +0.027 C 
ATOM      8  C   UNL     1     124.547 114.008 125.141  0.00  0.00    +0.036 C 
ATOM      9  C   UNL     1     123.641 113.795 127.416  0.00  0.00    +0.039 C 
ATOM     10  C   UNL     1     123.884 113.025 126.095  0.00  0.00    +0.122 C 
ATOM     11  C   UNL     1     127.673 117.645 126.116  0.00  0.00    +0.040 C 
ATOM     12  C   UNL     1     127.646 115.451 126.695  0.00  0.00    -0.015 C 
ATOM     13  C   UNL     1     124.902 116.047 128.259  0.00  0.00    -0.027 C 
ATOM     14  C   UNL     1     125.506 117.163 127.746  0.00  0.00    -0.026 C 
ATOM     15  C   UNL     1     128.339 116.606 126.953  0.00  0.00    -0.004 C 
ATOM     16  C   UNL     1     128.016 118.910 125.280  0.00  0.00    +0.129 C 
ATOM     17  C   UNL     1     129.069 116.748 128.256  0.00  0.00    +0.164 C 
ATOM     18  C   UNL     1     130.376 117.524 128.476  0.00  0.00    +0.086 C 
ATOM     19  C   UNL     1     128.546 118.511 123.873  0.00  0.00    +0.308 C 
ATOM     20  C   UNL     1     131.634 117.147 127.675  0.00  0.00    +0.132 C 
ATOM     21  C   UNL     1     130.190 118.988 128.857  0.00  0.00    +0.018 C 
ATOM     22  C   UNL     1     132.462 118.250 126.965  0.00  0.00    +0.032 C 
ATOM     23  C   UNL     1     130.864 118.156 123.725  0.00  0.00    +0.176 C 
ATOM     24  C   UNL     1     132.731 118.074 125.467  0.00  0.00    +0.006 C 
ATOM     25  C   UNL     1     131.782 118.942 124.661  0.00  0.00    +0.045 C 
ENDROOT
BRANCH  23  26
ATOM     26  C   UNL     1     131.559 117.857 122.378  0.00  0.00    +0.041 C 
ATOM     27  C   UNL     1     131.062 116.577 121.710  0.00  0.00    +0.007 C 
ENDBRANCH  23  26
BRANCH  10  28
ATOM     28  O   UNL     1     122.680 112.486 125.594  0.00  0.00    -0.345 OA
BRANCH  28  30
ATOM     29  O   UNL     1     121.420 110.672 124.597  0.00  0.00    -0.343 OA
ATOM     30  C   UNL     1     122.573 111.079 125.333  0.00  0.00    +0.282 C 
ATOM     31  C   UNL     1     122.878 110.162 126.533  0.00  0.00    +0.205 C 
ATOM     32  C   UNL     1     121.653 109.997 127.438  0.00  0.00    +0.179 C 
ATOM     33  C   UNL     1     120.208 110.466 125.319  0.00  0.00    +0.150 C 
ATOM     34  C   UNL     1     120.342 109.723 126.673  0.00  0.00    +0.177 C 
ATOM     35  C   UNL     1     119.258 109.711 124.392  0.00  0.00    +0.041 C 
BRANCH  31  36
ATOM     36  O   UNL     1     123.478 108.884 126.186  0.00  0.00    -0.372 OA
ATOM     37  C   UNL     1     124.290 108.801 125.025  0.00  0.00    +0.194 C 
ENDBRANCH  31  36
BRANCH  32  38
ATOM     38  O   UNL     1     121.906 108.962 128.410  0.00  0.00    -0.386 OA
ATOM     39  H   UNL     1     122.354 108.233 127.936  0.00  0.00    +0.210 HD
ENDBRANCH  32  38
BRANCH  34  40
ATOM     40  O   UNL     1     119.180 109.862 127.521  0.00  0.00    -0.375 OA
ATOM     41  C   UNL     1     118.874 111.159 128.013  0.00  0.00    +0.194 C 
ENDBRANCH  34  40
ENDBRANCH  28  30
ENDBRANCH  10  28
BRANCH  20  42
ATOM     42  O   UNL     1     131.423 115.995 126.887  0.00  0.00    -0.347 OA
BRANCH  42  44
ATOM     43  O   UNL     1     133.408 114.925 127.697  0.00  0.00    -0.347 OA
ATOM     44  C   UNL     1     132.020 114.794 127.417  0.00  0.00    +0.251 C 
ATOM     45  C   UNL     1     131.531 113.585 126.627  0.00  0.00    +0.063 C 
ATOM     46  C   UNL     1     132.566 113.011 125.690  0.00  0.00    +0.026 C 
ATOM     47  C   UNL     1     133.948 112.848 126.327  0.00  0.00    +0.085 C 
ATOM     48  C   UNL     1     134.407 114.140 127.046  0.00  0.00    +0.135 C 
ATOM     49  C   UNL     1     135.308 114.985 126.133  0.00  0.00    +0.039 C 
BRANCH  47  50
ATOM     50  N   UNL     1     134.075 111.600 127.128  0.00  0.00    -0.303 NA
ATOM     51  C   UNL     1     134.158 110.433 126.235  0.00  0.00    +0.105 C 
ATOM     52  C   UNL     1     135.203 111.560 128.060  0.00  0.00    +0.105 C 
ENDBRANCH  47  50
ENDBRANCH  42  44
ENDBRANCH  20  42
TORSDOF 9
ENDMDL
MODEL 3
REMARK VINA RESULT:      -8.2     28.023     34.417
REMARK  Name = 
REMARK  17 active torsions:
REMARK  status: ('A' for Active; 'I' for Inactive)
REMARK    1  A    between atoms: O_1  and  C_18
REMARK    2  A    between atoms: O_1  and  C_26
REMARK    3  A    between atoms: O_5  and  C_30
REMARK    4  A    between atoms: O_5  and  C_40
REMARK    5  A    between atoms: O_6  and  C_29
REMARK    6  A    between atoms: O_6  and  C_43
REMARK    7  A    between atoms: O_8  and  C_31
REMARK    8  A    between atoms: O_9  and  C_34
REMARK    9  A    between atoms: O_9  and  C_48
REMARK   10  A    between atoms: N_11  and  C_45
REMARK   11  A    between atoms: N_11  and  C_50
REMARK   12  A    between atoms: N_11  and  C_51
REMARK   13  A    between atoms: C_27  and  C_33
REMARK   14  A    between atoms: C_32  and  C_39
REMARK   15  A    between atoms: C_36  and  C_41
REMARK   16  A    between atoms: C_41  and  C_47
REMARK   17  A    between atoms: C_46  and  C_49
REMARK                            x       y       z     vdW  Elec       q    Type
REMARK                         _______ _______ _______ _____ _____    ______ ____
ROOT
ATOM      1  O   UNL     1      92.147 131.386 138.986  0.00  0.00    -0.292 OA
ATOM      2  O   UNL     1      96.105 126.984 141.598  0.00  0.00    -0.461 OA
ATOM      3  O   UNL     1      94.221 126.796 142.828  0.00  0.00    -0.251 OA
ATOM      4  C   UNL     1      89.714 128.692 142.261  0.00  0.00    +0.006 C 
ATOM      5  C   UNL     1      91.203 128.825 141.998  0.00  0.00    +0.023 C 
ATOM      6  C   UNL     1      88.968 129.680 141.392  0.00  0.00    +0.018 C 
ATOM      7  C   UNL     1      91.430 127.982 140.707  0.00  0.00    +0.027 C 
ATOM      8  C   UNL     1      89.210 128.768 143.683  0.00  0.00    +0.036 C 
ATOM      9  C   UNL     1      87.599 129.693 142.074  0.00  0.00    +0.039 C 
ATOM     10  C   UNL     1      87.961 129.631 143.578  0.00  0.00    +0.122 C 
ATOM     11  C   UNL     1      92.944 128.323 140.551  0.00  0.00    +0.040 C 
ATOM     12  C   UNL     1      91.931 130.128 141.481  0.00  0.00    -0.015 C 
ATOM     13  C   UNL     1      89.245 129.218 139.968  0.00  0.00    -0.027 C 
ATOM     14  C   UNL     1      90.347 128.470 139.648  0.00  0.00    -0.026 C 
ATOM     15  C   UNL     1      92.872 129.813 140.535  0.00  0.00    -0.004 C 
ATOM     16  C   UNL     1      93.979 127.173 140.396  0.00  0.00    +0.129 C 
ATOM     17  C   UNL     1      93.135 130.772 139.412  0.00  0.00    +0.164 C 
ATOM     18  C   UNL     1      94.485 130.997 138.717  0.00  0.00    +0.086 C 
ATOM     19  C   UNL     1      94.755 126.949 141.725  0.00  0.00    +0.308 C 
ATOM     20  C   UNL     1      95.706 131.441 139.541  0.00  0.00    +0.132 C 
ATOM     21  C   UNL     1      94.734 130.105 137.506  0.00  0.00    +0.018 C 
ATOM     22  C   UNL     1      97.063 130.707 139.376  0.00  0.00    +0.032 C 
ATOM     23  C   UNL     1      96.694 128.247 141.999  0.00  0.00    +0.176 C 
ATOM     24  C   UNL     1      97.722 130.154 140.644  0.00  0.00    +0.006 C 
ATOM     25  C   UNL     1      97.476 128.660 140.751  0.00  0.00    +0.045 C 
ENDROOT
BRANCH  23  26
ATOM     26  C   UNL     1      97.632 128.068 143.214  0.00  0.00    +0.041 C 
ATOM     27  C   UNL     1      98.053 126.619 143.445  0.00  0.00    +0.007 C 
ENDBRANCH  23  26
BRANCH  10  28
ATOM     28  O   UNL     1      86.879 129.143 144.340  0.00  0.00    -0.345 OA
BRANCH  28  30
ATOM     29  O   UNL     1      84.902 127.921 143.657  0.00  0.00    -0.343 OA
ATOM     30  C   UNL     1      86.282 127.879 144.017  0.00  0.00    +0.282 C 
ATOM     31  C   UNL     1      86.619 126.726 144.982  0.00  0.00    +0.205 C 
ATOM     32  C   UNL     1      85.709 126.741 146.214  0.00  0.00    +0.179 C 
ATOM     33  C   UNL     1      83.939 127.924 144.708  0.00  0.00    +0.150 C 
ATOM     34  C   UNL     1      84.217 126.955 145.888  0.00  0.00    +0.177 C 
ATOM     35  C   UNL     1      82.584 127.614 144.076  0.00  0.00    +0.041 C 
BRANCH  31  36
ATOM     36  O   UNL     1      86.681 125.412 144.363  0.00  0.00    -0.372 OA
ATOM     37  C   UNL     1      87.335 125.274 143.111  0.00  0.00    +0.194 C 
ENDBRANCH  31  36
BRANCH  32  38
ATOM     38  O   UNL     1      85.899 125.528 146.970  0.00  0.00    -0.386 OA
ATOM     39  H   UNL     1      86.080 124.817 146.324  0.00  0.00    +0.210 HD
ENDBRANCH  32  38
BRANCH  34  40
ATOM     40  O   UNL     1      83.440 127.253 147.069  0.00  0.00    -0.375 OA
ATOM     41  C   UNL     1      82.488 126.289 147.492  0.00  0.00    +0.194 C 
ENDBRANCH  34  40
ENDBRANCH  28  30
ENDBRANCH  10  28
BRANCH  20  42
ATOM     42  O   UNL     1      95.359 131.705 140.883  0.00  0.00    -0.347 OA
BRANCH  42  44
ATOM     43  O   UNL     1      94.467 133.400 142.322  0.00  0.00    -0.347 OA
ATOM     44  C   UNL     1      95.320 133.106 141.223  0.00  0.00    +0.251 C 
ATOM     45  C   UNL     1      95.212 133.941 139.952  0.00  0.00    +0.063 C 
ATOM     46  C   UNL     1      93.843 134.536 139.729  0.00  0.00    +0.026 C 
ATOM     47  C   UNL     1      93.244 135.185 140.978  0.00  0.00    +0.085 C 
ATOM     48  C   UNL     1      93.323 134.247 142.208  0.00  0.00    +0.135 C 
ATOM     49  C   UNL     1      92.006 133.479 142.398  0.00  0.00    +0.039 C 
BRANCH  47  50
ATOM     50  N   UNL     1      93.738 136.571 141.207  0.00  0.00    -0.303 NA
ATOM     51  C   UNL     1      93.804 137.299 139.929  0.00  0.00    +0.105 C 
ATOM     52  C   UNL     1      92.965 137.366 142.162  0.00  0.00    +0.105 C 
ENDBRANCH  47  50
ENDBRANCH  42  44
ENDBRANCH  20  42
TORSDOF 9
ENDMDL
MODEL 4
REMARK VINA RESULT:      -8.2     17.533     21.883
REMARK  Name = 
REMARK  17 active torsions:
REMARK  status: ('A' for Active; 'I' for Inactive)
REMARK    1  A    between atoms: O_1  and  C_18
REMARK    2  A    between atoms: O_1  and  C_26
REMARK    3  A    between atoms: O_5  and  C_30
REMARK    4  A    between atoms: O_5  and  C_40
REMARK    5  A    between atoms: O_6  and  C_29
REMARK    6  A    between atoms: O_6  and  C_43
REMARK    7  A    between atoms: O_8  and  C_31
REMARK    8  A    between atoms: O_9  and  C_34
REMARK    9  A    between atoms: O_9  and  C_48
REMARK   10  A    between atoms: N_11  and  C_45
REMARK   11  A    between atoms: N_11  and  C_50
REMARK   12  A    between atoms: N_11  and  C_51
REMARK   13  A    between atoms: C_27  and  C_33
REMARK   14  A    between atoms: C_32  and  C_39
REMARK   15  A    between atoms: C_36  and  C_41
REMARK   16  A    between atoms: C_41  and  C_47
REMARK   17  A    between atoms: C_46  and  C_49
REMARK                            x       y       z     vdW  Elec       q    Type
REMARK                         _______ _______ _______ _____ _____    ______ ____
ROOT
ATOM      1  O   UNL     1     122.169 110.631 122.683  0.00  0.00    -0.292 OA
ATOM      2  O   UNL     1     124.253 114.045 127.769  0.00  0.00    -0.461 OA
ATOM      3  O   UNL     1     122.404 113.011 128.550  0.00  0.00    -0.251 OA
ATOM      4  C   UNL     1     119.567 109.463 126.655  0.00  0.00    +0.006 C 
ATOM      5  C   UNL     1     120.519 110.617 126.398  0.00  0.00    +0.023 C 
ATOM      6  C   UNL     1     119.383 108.679 125.374  0.00  0.00    +0.018 C 
ATOM      7  C   UNL     1     121.931 109.966 126.499  0.00  0.00    +0.027 C 
ATOM      8  C   UNL     1     118.225 109.744 127.288  0.00  0.00    +0.036 C 
ATOM      9  C   UNL     1     118.133 107.864 125.706  0.00  0.00    +0.039 C 
ATOM     10  C   UNL     1     117.262 108.874 126.494  0.00  0.00    +0.122 C 
ATOM     11  C   UNL     1     122.733 111.248 126.114  0.00  0.00    +0.040 C 
ATOM     12  C   UNL     1     120.755 111.319 125.003  0.00  0.00    -0.015 C 
ATOM     13  C   UNL     1     120.763 108.106 125.078  0.00  0.00    -0.027 C 
ATOM     14  C   UNL     1     121.908 108.679 125.565  0.00  0.00    -0.026 C 
ATOM     15  C   UNL     1     122.089 111.570 124.807  0.00  0.00    -0.004 C 
ATOM     16  C   UNL     1     123.886 111.738 127.033  0.00  0.00    +0.129 C 
ATOM     17  C   UNL     1     122.653 111.501 123.419  0.00  0.00    +0.164 C 
ATOM     18  C   UNL     1     123.805 112.356 122.872  0.00  0.00    +0.086 C 
ATOM     19  C   UNL     1     123.436 112.968 127.872  0.00  0.00    +0.308 C 
ATOM     20  C   UNL     1     123.690 113.890 122.879  0.00  0.00    +0.132 C 
ATOM     21  C   UNL     1     125.192 111.749 123.056  0.00  0.00    +0.018 C 
ATOM     22  C   UNL     1     124.855 114.755 123.428  0.00  0.00    +0.032 C 
ATOM     23  C   UNL     1     123.761 115.062 126.859  0.00  0.00    +0.176 C 
ATOM     24  C   UNL     1     124.522 115.771 124.524  0.00  0.00    +0.006 C 
ATOM     25  C   UNL     1     124.927 115.225 125.882  0.00  0.00    +0.045 C 
ENDROOT
BRANCH  23  26
ATOM     26  C   UNL     1     123.464 116.384 127.601  0.00  0.00    +0.041 C 
ATOM     27  C   UNL     1     121.985 116.571 127.935  0.00  0.00    +0.007 C 
ENDBRANCH  23  26
BRANCH  10  28
ATOM     28  O   UNL     1     116.317 108.207 127.301  0.00  0.00    -0.345 OA
BRANCH  28  30
ATOM     29  O   UNL     1     117.555 106.484 128.472  0.00  0.00    -0.343 OA
ATOM     30  C   UNL     1     116.715 107.635 128.555  0.00  0.00    +0.282 C 
ATOM     31  C   UNL     1     115.591 107.487 129.598  0.00  0.00    +0.205 C 
ATOM     32  C   UNL     1     114.782 106.206 129.372  0.00  0.00    +0.179 C 
ATOM     33  C   UNL     1     116.932 105.217 128.277  0.00  0.00    +0.150 C 
ATOM     34  C   UNL     1     115.648 104.957 129.107  0.00  0.00    +0.177 C 
ATOM     35  C   UNL     1     117.983 104.151 128.577  0.00  0.00    +0.041 C 
BRANCH  31  36
ATOM     36  O   UNL     1     116.019 107.627 130.980  0.00  0.00    -0.372 OA
ATOM     37  C   UNL     1     116.217 108.930 131.508  0.00  0.00    +0.194 C 
ENDBRANCH  31  36
BRANCH  32  38
ATOM     38  O   UNL     1     113.899 105.988 130.491  0.00  0.00    -0.386 OA
ATOM     39  H   UNL     1     113.334 105.223 130.262  0.00  0.00    +0.210 HD
ENDBRANCH  32  38
BRANCH  34  40
ATOM     40  O   UNL     1     114.864 103.847 128.617  0.00  0.00    -0.375 OA
ATOM     41  C   UNL     1     114.008 104.082 127.509  0.00  0.00    +0.194 C 
ENDBRANCH  34  40
ENDBRANCH  28  30
ENDBRANCH  10  28
BRANCH  20  42
ATOM     42  O   UNL     1     122.414 114.314 123.308  0.00  0.00    -0.347 OA
BRANCH  42  44
ATOM     43  O   UNL     1     120.164 114.598 122.535  0.00  0.00    -0.347 OA
ATOM     44  C   UNL     1     121.547 114.761 122.246  0.00  0.00    +0.251 C 
ATOM     45  C   UNL     1     122.088 114.282 120.903  0.00  0.00    +0.063 C 
ATOM     46  C   UNL     1     121.303 113.143 120.302  0.00  0.00    +0.026 C 
ATOM     47  C   UNL     1     119.787 113.350 120.348  0.00  0.00    +0.085 C 
ATOM     48  C   UNL     1     119.305 113.761 121.760  0.00  0.00    +0.135 C 
ATOM     49  C   UNL     1     118.814 112.539 122.551  0.00  0.00    +0.039 C 
BRANCH  47  50
ATOM     50  N   UNL     1     119.283 114.200 119.234  0.00  0.00    -0.303 NA
ATOM     51  C   UNL     1     118.665 113.358 118.197  0.00  0.00    +0.105 C 
ATOM     52  C   UNL     1     118.333 115.245 119.619  0.00  0.00    +0.105 C 
ENDBRANCH  47  50
ENDBRANCH  42  44
ENDBRANCH  20  42
TORSDOF 9
ENDMDL
MODEL 5
REMARK VINA RESULT:      -8.1     16.114     20.432
REMARK  Name = 
REMARK  17 active torsions:
REMARK  status: ('A' for Active; 'I' for Inactive)
REMARK    1  A    between atoms: O_1  and  C_18
REMARK    2  A    between atoms: O_1  and  C_26
REMARK    3  A    between atoms: O_5  and  C_30
REMARK    4  A    between atoms: O_5  and  C_40
REMARK    5  A    between atoms: O_6  and  C_29
REMARK    6  A    between atoms: O_6  and  C_43
REMARK    7  A    between atoms: O_8  and  C_31
REMARK    8  A    between atoms: O_9  and  C_34
REMARK    9  A    between atoms: O_9  and  C_48
REMARK   10  A    between atoms: N_11  and  C_45
REMARK   11  A    between atoms: N_11  and  C_50
REMARK   12  A    between atoms: N_11  and  C_51
REMARK   13  A    between atoms: C_27  and  C_33
REMARK   14  A    between atoms: C_32  and  C_39
REMARK   15  A    between atoms: C_36  and  C_41
REMARK   16  A    between atoms: C_41  and  C_47
REMARK   17  A    between atoms: C_46  and  C_49
REMARK                            x       y       z     vdW  Elec       q    Type
REMARK                         _______ _______ _______ _____ _____    ______ ____
ROOT
ATOM      1  O   UNL     1     132.921 118.138 128.406  0.00  0.00    -0.292 OA
ATOM      2  O   UNL     1     129.370 118.394 123.003  0.00  0.00    -0.461 OA
ATOM      3  O   UNL     1     127.915 117.638 124.556  0.00  0.00    -0.251 OA
ATOM      4  C   UNL     1     128.227 117.260 129.454  0.00  0.00    +0.006 C 
ATOM      5  C   UNL     1     128.954 117.297 128.122  0.00  0.00    +0.023 C 
ATOM      6  C   UNL     1     129.233 117.421 130.572  0.00  0.00    +0.018 C 
ATOM      7  C   UNL     1     129.142 118.819 127.842  0.00  0.00    +0.027 C 
ATOM      8  C   UNL     1     127.299 116.106 129.752  0.00  0.00    +0.036 C 
ATOM      9  C   UNL     1     128.411 116.953 131.774  0.00  0.00    +0.039 C 
ATOM     10  C   UNL     1     127.609 115.759 131.201  0.00  0.00    +0.122 C 
ATOM     11  C   UNL     1     129.972 118.645 126.532  0.00  0.00    +0.040 C 
ATOM     12  C   UNL     1     130.464 116.894 127.890  0.00  0.00    -0.015 C 
ATOM     13  C   UNL     1     129.799 118.821 130.375  0.00  0.00    -0.027 C 
ATOM     14  C   UNL     1     129.776 119.450 129.158  0.00  0.00    -0.026 C 
ATOM     15  C   UNL     1     131.076 117.779 127.040  0.00  0.00    -0.004 C 
ATOM     16  C   UNL     1     129.529 119.384 125.238  0.00  0.00    +0.129 C 
ATOM     17  C   UNL     1     132.529 118.096 127.232  0.00  0.00    +0.164 C 
ATOM     18  C   UNL     1     133.532 118.434 126.120  0.00  0.00    +0.086 C 
ATOM     19  C   UNL     1     128.839 118.399 124.252  0.00  0.00    +0.308 C 
ATOM     20  C   UNL     1     133.777 117.431 124.980  0.00  0.00    +0.132 C 
ATOM     21  C   UNL     1     133.643 119.919 125.793  0.00  0.00    +0.018 C 
ATOM     22  C   UNL     1     133.755 117.911 123.504  0.00  0.00    +0.032 C 
ATOM     23  C   UNL     1     130.274 117.286 122.761  0.00  0.00    +0.176 C 
ATOM     24  C   UNL     1     132.817 117.178 122.540  0.00  0.00    +0.006 C 
ATOM     25  C   UNL     1     131.555 117.993 122.319  0.00  0.00    +0.045 C 
ENDROOT
BRANCH  23  26
ATOM     26  C   UNL     1     129.736 116.355 121.651  0.00  0.00    +0.041 C 
ATOM     27  C   UNL     1     129.655 117.029 120.283  0.00  0.00    +0.007 C 
ENDBRANCH  23  26
BRANCH  10  28
ATOM     28  O   UNL     1     126.457 115.506 131.973  0.00  0.00    -0.345 OA
BRANCH  28  30
ATOM     29  O   UNL     1     125.877 113.236 132.592  0.00  0.00    -0.343 OA
ATOM     30  C   UNL     1     126.470 114.477 132.974  0.00  0.00    +0.282 C 
ATOM     31  C   UNL     1     126.065 114.929 134.389  0.00  0.00    +0.205 C 
ATOM     32  C   UNL     1     124.542 114.949 134.557  0.00  0.00    +0.179 C 
ATOM     33  C   UNL     1     124.463 113.108 132.712  0.00  0.00    +0.150 C 
ATOM     34  C   UNL     1     123.834 113.695 134.003  0.00  0.00    +0.177 C 
ATOM     35  C   UNL     1     124.135 111.622 132.592  0.00  0.00    +0.041 C 
BRANCH  31  36
ATOM     36  O   UNL     1     126.725 114.215 135.469  0.00  0.00    -0.372 OA
ATOM     37  C   UNL     1     128.127 114.005 135.396  0.00  0.00    +0.194 C 
ENDBRANCH  31  36
BRANCH  32  38
ATOM     38  O   UNL     1     124.212 115.152 135.946  0.00  0.00    -0.386 OA
ATOM     39  H   UNL     1     124.588 116.017 136.204  0.00  0.00    +0.210 HD
ENDBRANCH  32  38
BRANCH  34  40
ATOM     40  O   UNL     1     122.403 113.875 133.914  0.00  0.00    -0.375 OA
ATOM     41  C   UNL     1     121.916 114.840 132.994  0.00  0.00    +0.194 C 
ENDBRANCH  34  40
ENDBRANCH  28  30
ENDBRANCH  10  28
BRANCH  20  42
ATOM     42  O   UNL     1     133.087 116.219 125.195  0.00  0.00    -0.347 OA
BRANCH  42  44
ATOM     43  O   UNL     1     133.234 113.863 125.604  0.00  0.00    -0.347 OA
ATOM     44  C   UNL     1     133.941 115.089 125.466  0.00  0.00    +0.251 C 
ATOM     45  C   UNL     1     134.983 115.469 126.513  0.00  0.00    +0.063 C 
ATOM     46  C   UNL     1     134.719 114.879 127.877  0.00  0.00    +0.026 C 
ATOM     47  C   UNL     1     134.353 113.394 127.844  0.00  0.00    +0.085 C 
ATOM     48  C   UNL     1     133.237 113.099 126.811  0.00  0.00    +0.135 C 
ATOM     49  C   UNL     1     131.858 113.069 127.486  0.00  0.00    +0.039 C 
BRANCH  47  50
ATOM     50  N   UNL     1     135.543 112.504 127.760  0.00  0.00    -0.303 NA
ATOM     51  C   UNL     1     136.574 112.949 128.713  0.00  0.00    +0.105 C 
ATOM     52  C   UNL     1     135.283 111.080 127.980  0.00  0.00    +0.105 C 
ENDBRANCH  47  50
ENDBRANCH  42  44
ENDBRANCH  20  42
TORSDOF 9
ENDMDL
MODEL 6
REMARK VINA RESULT:      -8.1      8.648     13.136
REMARK  Name = 
REMARK  17 active torsions:
REMARK  status: ('A' for Active; 'I' for Inactive)
REMARK    1  A    between atoms: O_1  and  C_18
REMARK    2  A    between atoms: O_1  and  C_26
REMARK    3  A    between atoms: O_5  and  C_30
REMARK    4  A    between atoms: O_5  and  C_40
REMARK    5  A    between atoms: O_6  and  C_29
REMARK    6  A    between atoms: O_6  and  C_43
REMARK    7  A    between atoms: O_8  and  C_31
REMARK    8  A    between atoms: O_9  and  C_34
REMARK    9  A    between atoms: O_9  and  C_48
REMARK   10  A    between atoms: N_11  and  C_45
REMARK   11  A    between atoms: N_11  and  C_50
REMARK   12  A    between atoms: N_11  and  C_51
REMARK   13  A    between atoms: C_27  and  C_33
REMARK   14  A    between atoms: C_32  and  C_39
REMARK   15  A    between atoms: C_36  and  C_41
REMARK   16  A    between atoms: C_41  and  C_47
REMARK   17  A    between atoms: C_46  and  C_49
REMARK                            x       y       z     vdW  Elec       q    Type
REMARK                         _______ _______ _______ _____ _____    ______ ____
ROOT
ATOM      1  O   UNL     1     112.777 120.054 128.315  0.00  0.00    -0.292 OA
ATOM      2  O   UNL     1     112.747 119.526 121.867  0.00  0.00    -0.461 OA
ATOM      3  O   UNL     1     113.329 121.679 122.217  0.00  0.00    -0.251 OA
ATOM      4  C   UNL     1     114.566 124.134 126.300  0.00  0.00    +0.006 C 
ATOM      5  C   UNL     1     113.804 122.976 125.683  0.00  0.00    +0.023 C 
ATOM      6  C   UNL     1     114.624 123.945 127.800  0.00  0.00    +0.018 C 
ATOM      7  C   UNL     1     114.869 121.842 125.579  0.00  0.00    +0.027 C 
ATOM      8  C   UNL     1     114.147 125.547 125.972  0.00  0.00    +0.036 C 
ATOM      9  C   UNL     1     115.031 125.346 128.257  0.00  0.00    +0.039 C 
ATOM     10  C   UNL     1     114.221 126.267 127.311  0.00  0.00    +0.122 C 
ATOM     11  C   UNL     1     113.895 120.749 125.039  0.00  0.00    +0.040 C 
ATOM     12  C   UNL     1     112.703 122.109 126.411  0.00  0.00    -0.015 C 
ATOM     13  C   UNL     1     115.443 122.675 127.992  0.00  0.00    -0.027 C 
ATOM     14  C   UNL     1     115.550 121.724 127.012  0.00  0.00    -0.026 C 
ATOM     15  C   UNL     1     112.856 120.780 126.109  0.00  0.00    -0.004 C 
ATOM     16  C   UNL     1     114.257 119.969 123.744  0.00  0.00    +0.129 C 
ATOM     17  C   UNL     1     112.517 119.749 127.144  0.00  0.00    +0.164 C 
ATOM     18  C   UNL     1     111.951 118.348 126.868  0.00  0.00    +0.086 C 
ATOM     19  C   UNL     1     113.425 120.491 122.538  0.00  0.00    +0.308 C 
ATOM     20  C   UNL     1     110.624 118.194 126.106  0.00  0.00    +0.132 C 
ATOM     21  C   UNL     1     113.005 117.262 126.681  0.00  0.00    +0.018 C 
ATOM     22  C   UNL     1     110.518 117.199 124.921  0.00  0.00    +0.032 C 
ATOM     23  C   UNL     1     111.342 119.452 122.218  0.00  0.00    +0.176 C 
ATOM     24  C   UNL     1     110.014 117.748 123.583  0.00  0.00    +0.006 C 
ATOM     25  C   UNL     1     111.183 117.993 122.645  0.00  0.00    +0.045 C 
ENDROOT
BRANCH  23  26
ATOM     26  C   UNL     1     110.443 119.782 121.005  0.00  0.00    +0.041 C 
ATOM     27  C   UNL     1     111.226 120.006 119.714  0.00  0.00    +0.007 C 
ENDBRANCH  23  26
BRANCH  10  28
ATOM     28  O   UNL     1     114.807 127.547 127.226  0.00  0.00    -0.345 OA
BRANCH  28  30
ATOM     29  O   UNL     1     115.625 129.312 125.781  0.00  0.00    -0.343 OA
ATOM     30  C   UNL     1     114.600 128.359 126.061  0.00  0.00    +0.282 C 
ATOM     31  C   UNL     1     113.180 128.937 125.906  0.00  0.00    +0.205 C 
ATOM     32  C   UNL     1     113.004 130.220 126.723  0.00  0.00    +0.179 C 
ATOM     33  C   UNL     1     115.576 130.563 126.463  0.00  0.00    +0.150 C 
ATOM     34  C   UNL     1     114.175 131.216 126.585  0.00  0.00    +0.177 C 
ATOM     35  C   UNL     1     116.538 131.504 125.742  0.00  0.00    +0.041 C 
BRANCH  31  36
ATOM     36  O   UNL     1     112.735 129.098 124.531  0.00  0.00    -0.372 OA
ATOM     37  C   UNL     1     112.466 127.939 123.757  0.00  0.00    +0.194 C 
ENDBRANCH  31  36
BRANCH  32  38
ATOM     38  O   UNL     1     111.754 130.848 126.374  0.00  0.00    -0.386 OA
ATOM     39  H   UNL     1     111.865 131.219 125.475  0.00  0.00    +0.210 HD
ENDBRANCH  32  38
BRANCH  34  40
ATOM     40  O   UNL     1     114.116 132.264 127.579  0.00  0.00    -0.375 OA
ATOM     41  C   UNL     1     113.892 133.590 127.125  0.00  0.00    +0.194 C 
ENDBRANCH  34  40
ENDBRANCH  28  30
ENDBRANCH  10  28
BRANCH  20  42
ATOM     42  O   UNL     1     110.020 119.445 125.856  0.00  0.00    -0.347 OA
BRANCH  42  44
ATOM     43  O   UNL     1     108.156 118.677 127.149  0.00  0.00    -0.347 OA
ATOM     44  C   UNL     1     108.958 119.788 126.770  0.00  0.00    +0.251 C 
ATOM     45  C   UNL     1     108.280 121.074 126.312  0.00  0.00    +0.063 C 
ATOM     46  C   UNL     1     106.919 120.860 125.698  0.00  0.00    +0.026 C 
ATOM     47  C   UNL     1     106.025 119.912 126.500  0.00  0.00    +0.085 C 
ATOM     48  C   UNL     1     106.759 118.597 126.863  0.00  0.00    +0.135 C 
ATOM     49  C   UNL     1     106.434 117.490 125.849  0.00  0.00    +0.039 C 
BRANCH  47  50
ATOM     50  N   UNL     1     105.336 120.584 127.635  0.00  0.00    -0.303 NA
ATOM     51  C   UNL     1     104.569 121.742 127.145  0.00  0.00    +0.105 C 
ATOM     52  C   UNL     1     104.447 119.733 128.428  0.00  0.00    +0.105 C 
ENDBRANCH  47  50
ENDBRANCH  42  44
ENDBRANCH  20  42
TORSDOF 9
ENDMDL
MODEL 7
REMARK VINA RESULT:      -8.0     98.697    102.383
REMARK  Name = 
REMARK  17 active torsions:
REMARK  status: ('A' for Active; 'I' for Inactive)
REMARK    1  A    between atoms: O_1  and  C_18
REMARK    2  A    between atoms: O_1  and  C_26
REMARK    3  A    between atoms: O_5  and  C_30
REMARK    4  A    between atoms: O_5  and  C_40
REMARK    5  A    between atoms: O_6  and  C_29
REMARK    6  A    between atoms: O_6  and  C_43
REMARK    7  A    between atoms: O_8  and  C_31
REMARK    8  A    between atoms: O_9  and  C_34
REMARK    9  A    between atoms: O_9  and  C_48
REMARK   10  A    between atoms: N_11  and  C_45
REMARK   11  A    between atoms: N_11  and  C_50
REMARK   12  A    between atoms: N_11  and  C_51
REMARK   13  A    between atoms: C_27  and  C_33
REMARK   14  A    between atoms: C_32  and  C_39
REMARK   15  A    between atoms: C_36  and  C_41
REMARK   16  A    between atoms: C_41  and  C_47
REMARK   17  A    between atoms: C_46  and  C_49
REMARK                            x       y       z     vdW  Elec       q    Type
REMARK                         _______ _______ _______ _____ _____    ______ ____
ROOT
ATOM      1  O   UNL     1     108.606 107.986  24.864  0.00  0.00    -0.292 OA
ATOM      2  O   UNL     1     107.489 107.165  31.184  0.00  0.00    -0.461 OA
ATOM      3  O   UNL     1     109.740 107.271  31.055  0.00  0.00    -0.251 OA
ATOM      4  C   UNL     1     112.777 108.467  27.370  0.00  0.00    +0.006 C 
ATOM      5  C   UNL     1     111.426 107.917  27.791  0.00  0.00    +0.023 C 
ATOM      6  C   UNL     1     112.745 108.779  25.890  0.00  0.00    +0.018 C 
ATOM      7  C   UNL     1     110.553 109.191  27.997  0.00  0.00    +0.027 C 
ATOM      8  C   UNL     1     114.025 107.686  27.709  0.00  0.00    +0.036 C 
ATOM      9  C   UNL     1     114.238 108.908  25.586  0.00  0.00    +0.039 C 
ATOM     10  C   UNL     1     114.863 107.779  26.442  0.00  0.00    +0.122 C 
ATOM     11  C   UNL     1     109.225 108.434  28.311  0.00  0.00    +0.040 C 
ATOM     12  C   UNL     1     110.407 107.164  26.847  0.00  0.00    -0.015 C 
ATOM     13  C   UNL     1     111.713 109.892  25.759  0.00  0.00    -0.027 C 
ATOM     14  C   UNL     1     110.723 110.077  26.687  0.00  0.00    -0.026 C 
ATOM     15  C   UNL     1     109.123 107.579  27.092  0.00  0.00    -0.004 C 
ATOM     16  C   UNL     1     108.429 108.780  29.600  0.00  0.00    +0.129 C 
ATOM     17  C   UNL     1     108.143 107.641  25.959  0.00  0.00    +0.164 C 
ATOM     18  C   UNL     1     106.632 107.385  26.060  0.00  0.00    +0.086 C 
ATOM     19  C   UNL     1     108.638 107.686  30.686  0.00  0.00    +0.308 C 
ATOM     20  C   UNL     1     106.118 106.036  26.590  0.00  0.00    +0.132 C 
ATOM     21  C   UNL     1     105.795 108.626  26.350  0.00  0.00    +0.018 C 
ATOM     22  C   UNL     1     105.018 105.999  27.684  0.00  0.00    +0.032 C 
ATOM     23  C   UNL     1     107.137 105.881  30.609  0.00  0.00    +0.176 C 
ATOM     24  C   UNL     1     105.315 105.195  28.954  0.00  0.00    +0.006 C 
ATOM     25  C   UNL     1     105.725 106.129  30.079  0.00  0.00    +0.045 C 
ENDROOT
BRANCH  23  26
ATOM     26  C   UNL     1     107.145 104.766  31.680  0.00  0.00    +0.041 C 
ATOM     27  C   UNL     1     105.819 104.634  32.426  0.00  0.00    +0.007 C 
ENDBRANCH  23  26
BRANCH  10  28
ATOM     28  O   UNL     1     116.228 108.032  26.694  0.00  0.00    -0.345 OA
BRANCH  28  30
ATOM     29  O   UNL     1     117.960 109.463  25.785  0.00  0.00    -0.343 OA
ATOM     30  C   UNL     1     116.756 109.358  26.544  0.00  0.00    +0.282 C 
ATOM     31  C   UNL     1     116.777 110.207  27.830  0.00  0.00    +0.205 C 
ATOM     32  C   UNL     1     118.015 109.906  28.681  0.00  0.00    +0.179 C 
ATOM     33  C   UNL     1     119.194 109.222  26.457  0.00  0.00    +0.150 C 
ATOM     34  C   UNL     1     119.328 109.840  27.874  0.00  0.00    +0.177 C 
ATOM     35  C   UNL     1     120.307 109.736  25.548  0.00  0.00    +0.041 C 
BRANCH  31  36
ATOM     36  O   UNL     1     116.590 111.633  27.620  0.00  0.00    -0.372 OA
ATOM     37  C   UNL     1     115.825 112.069  26.507  0.00  0.00    +0.194 C 
ENDBRANCH  31  36
BRANCH  32  38
ATOM     38  O   UNL     1     118.116 110.873  29.745  0.00  0.00    -0.386 OA
ATOM     39  H   UNL     1     117.346 111.470  29.660  0.00  0.00    +0.210 HD
ENDBRANCH  32  38
BRANCH  34  40
ATOM     40  O   UNL     1     120.411 109.275  28.646  0.00  0.00    -0.375 OA
ATOM     41  C   UNL     1     120.380 107.879  28.901  0.00  0.00    +0.194 C 
ENDBRANCH  34  40
ENDBRANCH  28  30
ENDBRANCH  10  28
BRANCH  20  42
ATOM     42  O   UNL     1     107.174 105.128  26.813  0.00  0.00    -0.347 OA
BRANCH  42  44
ATOM     43  O   UNL     1     108.322 103.153  26.089  0.00  0.00    -0.347 OA
ATOM     44  C   UNL     1     107.221 104.028  25.881  0.00  0.00    +0.251 C 
ATOM     45  C   UNL     1     106.928 104.535  24.473  0.00  0.00    +0.063 C 
ATOM     46  C   UNL     1     108.146 104.601  23.584  0.00  0.00    +0.026 C 
ATOM     47  C   UNL     1     109.023 103.349  23.649  0.00  0.00    +0.085 C 
ATOM     48  C   UNL     1     109.338 102.941  25.108  0.00  0.00    +0.135 C 
ATOM     49  C   UNL     1     110.700 103.496  25.552  0.00  0.00    +0.039 C 
BRANCH  47  50
ATOM     50  N   UNL     1     108.528 102.248  22.777  0.00  0.00    -0.303 NA
ATOM     51  C   UNL     1     109.318 102.193  21.536  0.00  0.00    +0.105 C 
ATOM     52  C   UNL     1     108.517 100.917  23.387  0.00  0.00    +0.105 C 
ENDBRANCH  47  50
ENDBRANCH  42  44
ENDBRANCH  20  42
TORSDOF 9
ENDMDL
MODEL 8
REMARK VINA RESULT:      -7.9     61.425     64.833
REMARK  Name = 
REMARK  17 active torsions:
REMARK  status: ('A' for Active; 'I' for Inactive)
REMARK    1  A    between atoms: O_1  and  C_18
REMARK    2  A    between atoms: O_1  and  C_26
REMARK    3  A    between atoms: O_5  and  C_30
REMARK    4  A    between atoms: O_5  and  C_40
REMARK    5  A    between atoms: O_6  and  C_29
REMARK    6  A    between atoms: O_6  and  C_43
REMARK    7  A    between atoms: O_8  and  C_31
REMARK    8  A    between atoms: O_9  and  C_34
REMARK    9  A    between atoms: O_9  and  C_48
REMARK   10  A    between atoms: N_11  and  C_45
REMARK   11  A    between atoms: N_11  and  C_50
REMARK   12  A    between atoms: N_11  and  C_51
REMARK   13  A    between atoms: C_27  and  C_33
REMARK   14  A    between atoms: C_32  and  C_39
REMARK   15  A    between atoms: C_36  and  C_41
REMARK   16  A    between atoms: C_41  and  C_47
REMARK   17  A    between atoms: C_46  and  C_49
REMARK                            x       y       z     vdW  Elec       q    Type
REMARK                         _______ _______ _______ _____ _____    ______ ____
ROOT
ATOM      1  O   UNL     1     134.497 122.264  66.537  0.00  0.00    -0.292 OA
ATOM      2  O   UNL     1     133.780 115.856  67.084  0.00  0.00    -0.461 OA
ATOM      3  O   UNL     1     133.913 116.184  64.854  0.00  0.00    -0.251 OA
ATOM      4  C   UNL     1     135.079 120.142  62.171  0.00  0.00    +0.006 C 
ATOM      5  C   UNL     1     134.520 119.595  63.471  0.00  0.00    +0.023 C 
ATOM      6  C   UNL     1     135.363 121.619  62.337  0.00  0.00    +0.018 C 
ATOM      7  C   UNL     1     135.787 119.335  64.342  0.00  0.00    +0.027 C 
ATOM      8  C   UNL     1     134.322 119.901  60.886  0.00  0.00    +0.036 C 
ATOM      9  C   UNL     1     135.506 122.055  60.878  0.00  0.00    +0.039 C 
ATOM     10  C   UNL     1     134.402 121.238  60.163  0.00  0.00    +0.122 C 
ATOM     11  C   UNL     1     135.017 118.892  65.625  0.00  0.00    +0.040 C 
ATOM     12  C   UNL     1     133.736 120.432  64.557  0.00  0.00    -0.015 C 
ATOM     13  C   UNL     1     136.460 121.678  63.392  0.00  0.00    -0.027 C 
ATOM     14  C   UNL     1     136.650 120.670  64.300  0.00  0.00    -0.026 C 
ATOM     15  C   UNL     1     134.139 120.082  65.821  0.00  0.00    -0.004 C 
ATOM     16  C   UNL     1     135.377 117.545  66.311  0.00  0.00    +0.129 C 
ATOM     17  C   UNL     1     134.167 121.126  66.898  0.00  0.00    +0.164 C 
ATOM     18  C   UNL     1     133.894 120.888  68.390  0.00  0.00    +0.086 C 
ATOM     19  C   UNL     1     134.307 116.462  65.991  0.00  0.00    +0.308 C 
ATOM     20  C   UNL     1     132.548 120.291  68.836  0.00  0.00    +0.132 C 
ATOM     21  C   UNL     1     135.129 120.547  69.217  0.00  0.00    +0.018 C 
ATOM     22  C   UNL     1     132.517 119.104  69.835  0.00  0.00    +0.032 C 
ATOM     23  C   UNL     1     132.481 116.375  67.466  0.00  0.00    +0.176 C 
ATOM     24  C   UNL     1     131.741 117.852  69.416  0.00  0.00    +0.006 C 
ATOM     25  C   UNL     1     132.701 116.784  68.923  0.00  0.00    +0.045 C 
ENDROOT
BRANCH  23  26
ATOM     26  C   UNL     1     131.387 115.290  67.348  0.00  0.00    +0.041 C 
ATOM     27  C   UNL     1     131.735 114.185  66.353  0.00  0.00    +0.007 C 
ENDBRANCH  23  26
BRANCH  10  28
ATOM     28  O   UNL     1     134.677 121.112  58.786  0.00  0.00    -0.345 OA
BRANCH  28  30
ATOM     29  O   UNL     1     136.192 122.116  57.183  0.00  0.00    -0.343 OA
ATOM     30  C   UNL     1     136.021 121.248  58.303  0.00  0.00    +0.282 C 
ATOM     31  C   UNL     1     136.810 119.930  58.171  0.00  0.00    +0.205 C 
ATOM     32  C   UNL     1     136.501 119.221  56.849  0.00  0.00    +0.179 C 
ATOM     33  C   UNL     1     135.952 121.581  55.884  0.00  0.00    +0.150 C 
ATOM     34  C   UNL     1     136.506 120.156  55.622  0.00  0.00    +0.177 C 
ATOM     35  C   UNL     1     136.536 122.570  54.878  0.00  0.00    +0.041 C 
BRANCH  31  36
ATOM     36  O   UNL     1     138.239 120.050  58.408  0.00  0.00    -0.372 OA
ATOM     37  C   UNL     1     138.704 120.195  59.741  0.00  0.00    +0.194 C 
ENDBRANCH  31  36
BRANCH  32  38
ATOM     38  O   UNL     1     137.419 118.126  56.662  0.00  0.00    -0.386 OA
ATOM     39  H   UNL     1     136.882 117.308  56.636  0.00  0.00    +0.210 HD
ENDBRANCH  32  38
BRANCH  34  40
ATOM     40  O   UNL     1     135.933 119.524  54.455  0.00  0.00    -0.375 OA
ATOM     41  C   UNL     1     134.542 119.692  54.231  0.00  0.00    +0.194 C 
ENDBRANCH  34  40
ENDBRANCH  28  30
ENDBRANCH  10  28
BRANCH  20  42
ATOM     42  O   UNL     1     131.658 120.146  67.751  0.00  0.00    -0.347 OA
BRANCH  42  44
ATOM     43  O   UNL     1     130.574 121.972  68.862  0.00  0.00    -0.347 OA
ATOM     44  C   UNL     1     130.559 121.081  67.753  0.00  0.00    +0.251 C 
ATOM     45  C   UNL     1     129.266 120.357  67.396  0.00  0.00    +0.063 C 
ATOM     46  C   UNL     1     128.345 120.141  68.572  0.00  0.00    +0.026 C 
ATOM     47  C   UNL     1     128.167 121.381  69.450  0.00  0.00    +0.085 C 
ATOM     48  C   UNL     1     129.527 122.017  69.832  0.00  0.00    +0.135 C 
ATOM     49  C   UNL     1     129.990 121.531  71.213  0.00  0.00    +0.039 C 
BRANCH  47  50
ATOM     50  N   UNL     1     127.154 122.331  68.914  0.00  0.00    -0.303 NA
ATOM     51  C   UNL     1     126.086 122.543  69.905  0.00  0.00    +0.105 C 
ATOM     52  C   UNL     1     127.670 123.635  68.494  0.00  0.00    +0.105 C 
ENDBRANCH  47  50
ENDBRANCH  42  44
ENDBRANCH  20  42
TORSDOF 9
ENDMDL
MODEL 9
REMARK VINA RESULT:      -7.9      8.940     13.163
REMARK  Name = 
REMARK  17 active torsions:
REMARK  status: ('A' for Active; 'I' for Inactive)
REMARK    1  A    between atoms: O_1  and  C_18
REMARK    2  A    between atoms: O_1  and  C_26
REMARK    3  A    between atoms: O_5  and  C_30
REMARK    4  A    between atoms: O_5  and  C_40
REMARK    5  A    between atoms: O_6  and  C_29
REMARK    6  A    between atoms: O_6  and  C_43
REMARK    7  A    between atoms: O_8  and  C_31
REMARK    8  A    between atoms: O_9  and  C_34
REMARK    9  A    between atoms: O_9  and  C_48
REMARK   10  A    between atoms: N_11  and  C_45
REMARK   11  A    between atoms: N_11  and  C_50
REMARK   12  A    between atoms: N_11  and  C_51
REMARK   13  A    between atoms: C_27  and  C_33
REMARK   14  A    between atoms: C_32  and  C_39
REMARK   15  A    between atoms: C_36  and  C_41
REMARK   16  A    between atoms: C_41  and  C_47
REMARK   17  A    between atoms: C_46  and  C_49
REMARK                            x       y       z     vdW  Elec       q    Type
REMARK                         _______ _______ _______ _____ _____    ______ ____
ROOT
ATOM      1  O   UNL     1     111.757 120.477 128.975  0.00  0.00    -0.292 OA
ATOM      2  O   UNL     1     112.353 118.089 122.991  0.00  0.00    -0.461 OA
ATOM      3  O   UNL     1     113.336 120.116 122.850  0.00  0.00    -0.251 OA
ATOM      4  C   UNL     1     114.592 123.413 126.283  0.00  0.00    +0.006 C 
ATOM      5  C   UNL     1     113.677 122.273 125.875  0.00  0.00    +0.023 C 
ATOM      6  C   UNL     1     114.436 123.666 127.766  0.00  0.00    +0.018 C 
ATOM      7  C   UNL     1     114.481 120.994 126.259  0.00  0.00    +0.027 C 
ATOM      8  C   UNL     1     114.524 124.717 125.524  0.00  0.00    +0.036 C 
ATOM      9  C   UNL     1     115.078 125.048 127.896  0.00  0.00    +0.039 C 
ATOM     10  C   UNL     1     114.596 125.774 126.616  0.00  0.00    +0.122 C 
ATOM     11  C   UNL     1     113.365 119.975 125.871  0.00  0.00    +0.040 C 
ATOM     12  C   UNL     1     112.341 121.861 126.609  0.00  0.00    -0.015 C 
ATOM     13  C   UNL     1     114.940 122.388 128.425  0.00  0.00    -0.027 C 
ATOM     14  C   UNL     1     114.953 121.188 127.766  0.00  0.00    -0.026 C 
ATOM     15  C   UNL     1     112.240 120.497 126.702  0.00  0.00    -0.004 C 
ATOM     16  C   UNL     1     113.697 118.799 124.911  0.00  0.00    +0.129 C 
ATOM     17  C   UNL     1     111.573 119.890 127.901  0.00  0.00    +0.164 C 
ATOM     18  C   UNL     1     110.758 118.588 127.915  0.00  0.00    +0.086 C 
ATOM     19  C   UNL     1     113.139 119.077 123.487  0.00  0.00    +0.308 C 
ATOM     20  C   UNL     1     109.524 118.448 127.007  0.00  0.00    +0.132 C 
ATOM     21  C   UNL     1     111.571 117.331 128.205  0.00  0.00    +0.018 C 
ATOM     22  C   UNL     1     109.345 117.182 126.129  0.00  0.00    +0.032 C 
ATOM     23  C   UNL     1     110.933 118.364 123.105  0.00  0.00    +0.176 C 
ATOM     24  C   UNL     1     109.126 117.391 124.627  0.00  0.00    +0.006 C 
ATOM     25  C   UNL     1     110.419 117.145 123.871  0.00  0.00    +0.045 C 
ENDROOT
BRANCH  23  26
ATOM     26  C   UNL     1     110.269 118.472 121.714  0.00  0.00    +0.041 C 
ATOM     27  C   UNL     1     110.504 119.819 121.034  0.00  0.00    +0.007 C 
ENDBRANCH  23  26
BRANCH  10  28
ATOM     28  O   UNL     1     115.447 126.852 126.295  0.00  0.00    -0.345 OA
BRANCH  28  30
ATOM     29  O   UNL     1     113.696 128.505 126.565  0.00  0.00    -0.343 OA
ATOM     30  C   UNL     1     115.085 128.191 126.662  0.00  0.00    +0.282 C 
ATOM     31  C   UNL     1     115.994 129.298 126.095  0.00  0.00    +0.205 C 
ATOM     32  C   UNL     1     115.594 129.676 124.665  0.00  0.00    +0.179 C 
ATOM     33  C   UNL     1     113.187 128.890 125.290  0.00  0.00    +0.150 C 
ATOM     34  C   UNL     1     114.075 129.861 124.469  0.00  0.00    +0.177 C 
ATOM     35  C   UNL     1     111.808 129.501 125.524  0.00  0.00    +0.041 C 
BRANCH  31  36
ATOM     36  O   UNL     1     116.138 130.465 126.950  0.00  0.00    -0.372 OA
ATOM     37  C   UNL     1     116.925 130.360 128.127  0.00  0.00    +0.194 C 
ENDBRANCH  31  36
BRANCH  32  38
ATOM     38  O   UNL     1     116.311 130.860 124.260  0.00  0.00    -0.386 OA
ATOM     39  H   UNL     1     116.906 131.098 124.999  0.00  0.00    +0.210 HD
ENDBRANCH  32  38
BRANCH  34  40
ATOM     40  O   UNL     1     113.713 129.927 123.072  0.00  0.00    -0.375 OA
ATOM     41  C   UNL     1     113.233 131.166 122.572  0.00  0.00    +0.194 C 
ENDBRANCH  34  40
ENDBRANCH  28  30
ENDBRANCH  10  28
BRANCH  20  42
ATOM     42  O   UNL     1     109.234 119.654 126.334  0.00  0.00    -0.347 OA
BRANCH  42  44
ATOM     43  O   UNL     1     107.455 119.771 127.935  0.00  0.00    -0.347 OA
ATOM     44  C   UNL     1     108.246 120.477 126.988  0.00  0.00    +0.251 C 
ATOM     45  C   UNL     1     107.557 121.369 125.960  0.00  0.00    +0.063 C 
ATOM     46  C   UNL     1     106.152 120.935 125.623  0.00  0.00    +0.026 C 
ATOM     47  C   UNL     1     105.303 120.592 126.849  0.00  0.00    +0.085 C 
ATOM     48  C   UNL     1     106.040 119.625 127.807  0.00  0.00    +0.135 C 
ATOM     49  C   UNL     1     105.626 118.169 127.543  0.00  0.00    +0.039 C 
BRANCH  47  50
ATOM     50  N   UNL     1     104.708 121.793 127.497  0.00  0.00    -0.303 NA
ATOM     51  C   UNL     1     104.025 122.623 126.491  0.00  0.00    +0.105 C 
ATOM     52  C   UNL     1     103.776 121.521 128.593  0.00  0.00    +0.105 C 
ENDBRANCH  47  50
ENDBRANCH  42  44
ENDBRANCH  20  42
TORSDOF 9
ENDMDL
MODEL 10
REMARK VINA RESULT:      -7.8     31.993     36.449
REMARK  Name = 
REMARK  17 active torsions:
REMARK  status: ('A' for Active; 'I' for Inactive)
REMARK    1  A    between atoms: O_1  and  C_18
REMARK    2  A    between atoms: O_1  and  C_26
REMARK    3  A    between atoms: O_5  and  C_30
REMARK    4  A    between atoms: O_5  and  C_40
REMARK    5  A    between atoms: O_6  and  C_29
REMARK    6  A    between atoms: O_6  and  C_43
REMARK    7  A    between atoms: O_8  and  C_31
REMARK    8  A    between atoms: O_9  and  C_34
REMARK    9  A    between atoms: O_9  and  C_48
REMARK   10  A    between atoms: N_11  and  C_45
REMARK   11  A    between atoms: N_11  and  C_50
REMARK   12  A    between atoms: N_11  and  C_51
REMARK   13  A    between atoms: C_27  and  C_33
REMARK   14  A    between atoms: C_32  and  C_39
REMARK   15  A    between atoms: C_36  and  C_41
REMARK   16  A    between atoms: C_41  and  C_47
REMARK   17  A    between atoms: C_46  and  C_49
REMARK                            x       y       z     vdW  Elec       q    Type
REMARK                         _______ _______ _______ _____ _____    ______ ____
ROOT
ATOM      1  O   UNL     1     113.831 119.066 161.304  0.00  0.00    -0.292 OA
ATOM      2  O   UNL     1     115.518 116.514 155.603  0.00  0.00    -0.461 OA
ATOM      3  O   UNL     1     114.298 118.325 155.030  0.00  0.00    -0.251 OA
ATOM      4  C   UNL     1     112.531 122.078 157.679  0.00  0.00    +0.006 C 
ATOM      5  C   UNL     1     112.976 120.628 157.650  0.00  0.00    +0.023 C 
ATOM      6  C   UNL     1     112.395 122.526 159.118  0.00  0.00    +0.018 C 
ATOM      7  C   UNL     1     114.519 120.706 157.855  0.00  0.00    +0.027 C 
ATOM      8  C   UNL     1     111.309 122.488 156.891  0.00  0.00    +0.036 C 
ATOM      9  C   UNL     1     111.573 123.804 158.951  0.00  0.00    +0.039 C 
ATOM     10  C   UNL     1     110.569 123.426 157.834  0.00  0.00    +0.122 C 
ATOM     11  C   UNL     1     114.759 119.165 157.899  0.00  0.00    +0.040 C 
ATOM     12  C   UNL     1     112.708 119.563 158.785  0.00  0.00    -0.015 C 
ATOM     13  C   UNL     1     113.811 122.447 159.675  0.00  0.00    -0.027 C 
ATOM     14  C   UNL     1     114.763 121.630 159.127  0.00  0.00    -0.026 C 
ATOM     15  C   UNL     1     113.821 118.791 158.997  0.00  0.00    -0.004 C 
ATOM     16  C   UNL     1     115.825 118.527 156.965  0.00  0.00    +0.129 C 
ATOM     17  C   UNL     1     114.117 118.293 160.381  0.00  0.00    +0.164 C 
ATOM     18  C   UNL     1     114.796 116.961 160.733  0.00  0.00    +0.086 C 
ATOM     19  C   UNL     1     115.144 117.808 155.765  0.00  0.00    +0.308 C 
ATOM     20  C   UNL     1     114.174 115.636 160.259  0.00  0.00    +0.132 C 
ATOM     21  C   UNL     1     116.315 117.031 160.844  0.00  0.00    +0.018 C 
ATOM     22  C   UNL     1     115.059 114.566 159.566  0.00  0.00    +0.032 C 
ATOM     23  C   UNL     1     114.559 115.562 156.128  0.00  0.00    +0.176 C 
ATOM     24  C   UNL     1     114.605 114.059 158.194  0.00  0.00    +0.006 C 
ATOM     25  C   UNL     1     115.406 114.736 157.096  0.00  0.00    +0.045 C 
ENDROOT
BRANCH  23  26
ATOM     26  C   UNL     1     113.971 114.679 155.004  0.00  0.00    +0.041 C 
ATOM     27  C   UNL     1     114.670 114.867 153.659  0.00  0.00    +0.007 C 
ENDBRANCH  23  26
BRANCH  10  28
ATOM     28  O   UNL     1     110.065 124.577 157.195  0.00  0.00    -0.345 OA
BRANCH  28  30
ATOM     29  O   UNL     1     107.762 125.332 157.197  0.00  0.00    -0.343 OA
ATOM     30  C   UNL     1     109.044 125.363 157.825  0.00  0.00    +0.282 C 
ATOM     31  C   UNL     1     109.472 126.781 158.251  0.00  0.00    +0.205 C 
ATOM     32  C   UNL     1     109.386 127.768 157.083  0.00  0.00    +0.179 C 
ATOM     33  C   UNL     1     107.537 126.214 156.100  0.00  0.00    +0.150 C 
ATOM     34  C   UNL     1     108.084 127.656 156.263  0.00  0.00    +0.177 C 
ATOM     35  C   UNL     1     106.031 126.243 155.851  0.00  0.00    +0.041 C 
BRANCH  31  36
ATOM     36  O   UNL     1     108.810 127.285 159.443  0.00  0.00    -0.372 OA
ATOM     37  C   UNL     1     109.501 127.240 160.682  0.00  0.00    +0.194 C 
ENDBRANCH  31  36
BRANCH  32  38
ATOM     38  O   UNL     1     109.571 129.112 157.571  0.00  0.00    -0.386 OA
ATOM     39  H   UNL     1     109.828 129.660 156.802  0.00  0.00    +0.210 HD
ENDBRANCH  32  38
BRANCH  34  40
ATOM     40  O   UNL     1     108.162 128.384 155.017  0.00  0.00    -0.375 OA
ATOM     41  C   UNL     1     107.434 129.599 154.917  0.00  0.00    +0.194 C 
ENDBRANCH  34  40
ENDBRANCH  28  30
ENDBRANCH  10  28
BRANCH  20  42
ATOM     42  O   UNL     1     112.929 115.842 159.628  0.00  0.00    -0.347 OA
BRANCH  42  44
ATOM     43  O   UNL     1     112.122 114.846 161.652  0.00  0.00    -0.347 OA
ATOM     44  C   UNL     1     111.803 115.289 160.339  0.00  0.00    +0.251 C 
ATOM     45  C   UNL     1     111.013 114.369 159.414  0.00  0.00    +0.063 C 
ATOM     46  C   UNL     1     111.201 112.901 159.710  0.00  0.00    +0.026 C 
ATOM     47  C   UNL     1     111.103 112.557 161.198  0.00  0.00    +0.085 C 
ATOM     48  C   UNL     1     111.990 113.485 162.063  0.00  0.00    +0.135 C 
ATOM     49  C   UNL     1     113.349 112.831 162.355  0.00  0.00    +0.039 C 
BRANCH  47  50
ATOM     50  N   UNL     1     109.699 112.405 161.668  0.00  0.00    -0.303 NA
ATOM     51  C   UNL     1     109.262 111.008 161.511  0.00  0.00    +0.105 C 
ATOM     52  C   UNL     1     109.447 112.824 163.048  0.00  0.00    +0.105 C 
ENDBRANCH  47  50
ENDBRANCH  42  44
ENDBRANCH  20  42
TORSDOF 9
ENDMDL
MODEL 11
REMARK VINA RESULT:      -7.8      1.262      2.106
REMARK  Name = 
REMARK  17 active torsions:
REMARK  status: ('A' for Active; 'I' for Inactive)
REMARK    1  A    between atoms: O_1  and  C_18
REMARK    2  A    between atoms: O_1  and  C_26
REMARK    3  A    between atoms: O_5  and  C_30
REMARK    4  A    between atoms: O_5  and  C_40
REMARK    5  A    between atoms: O_6  and  C_29
REMARK    6  A    between atoms: O_6  and  C_43
REMARK    7  A    between atoms: O_8  and  C_31
REMARK    8  A    between atoms: O_9  and  C_34
REMARK    9  A    between atoms: O_9  and  C_48
REMARK   10  A    between atoms: N_11  and  C_45
REMARK   11  A    between atoms: N_11  and  C_50
REMARK   12  A    between atoms: N_11  and  C_51
REMARK   13  A    between atoms: C_27  and  C_33
REMARK   14  A    between atoms: C_32  and  C_39
REMARK   15  A    between atoms: C_36  and  C_41
REMARK   16  A    between atoms: C_41  and  C_47
REMARK   17  A    between atoms: C_46  and  C_49
REMARK                            x       y       z     vdW  Elec       q    Type
REMARK                         _______ _______ _______ _____ _____    ______ ____
ROOT
ATOM      1  O   UNL     1     118.623 129.612 129.029  0.00  0.00    -0.292 OA
ATOM      2  O   UNL     1     115.468 127.269 123.889  0.00  0.00    -0.461 OA
ATOM      3  O   UNL     1     117.588 127.499 123.147  0.00  0.00    -0.251 OA
ATOM      4  C   UNL     1     121.802 128.515 125.479  0.00  0.00    +0.006 C 
ATOM      5  C   UNL     1     120.290 128.644 125.450  0.00  0.00    +0.023 C 
ATOM      6  C   UNL     1     122.307 128.924 126.846  0.00  0.00    +0.018 C 
ATOM      7  C   UNL     1     119.790 127.327 126.117  0.00  0.00    +0.027 C 
ATOM      8  C   UNL     1     122.618 129.189 124.402  0.00  0.00    +0.036 C 
ATOM      9  C   UNL     1     123.795 129.127 126.559  0.00  0.00    +0.039 C 
ATOM     10  C   UNL     1     123.790 129.794 125.161  0.00  0.00    +0.122 C 
ATOM     11  C   UNL     1     118.273 127.691 126.087  0.00  0.00    +0.040 C 
ATOM     12  C   UNL     1     119.435 129.624 126.346  0.00  0.00    -0.015 C 
ATOM     13  C   UNL     1     121.719 127.887 127.794  0.00  0.00    -0.027 C 
ATOM     14  C   UNL     1     120.589 127.177 127.484  0.00  0.00    -0.026 C 
ATOM     15  C   UNL     1     118.308 128.996 126.811  0.00  0.00    -0.004 C 
ATOM     16  C   UNL     1     117.256 126.696 125.462  0.00  0.00    +0.129 C 
ATOM     17  C   UNL     1     117.774 129.352 128.166  0.00  0.00    +0.164 C 
ATOM     18  C   UNL     1     116.295 129.353 128.580  0.00  0.00    +0.086 C 
ATOM     19  C   UNL     1     116.812 127.176 124.051  0.00  0.00    +0.308 C 
ATOM     20  C   UNL     1     115.287 130.231 127.819  0.00  0.00    +0.132 C 
ATOM     21  C   UNL     1     115.793 128.031 129.150  0.00  0.00    +0.018 C 
ATOM     22  C   UNL     1     113.945 129.627 127.328  0.00  0.00    +0.032 C 
ATOM     23  C   UNL     1     114.960 128.622 124.009  0.00  0.00    +0.176 C 
ATOM     24  C   UNL     1     113.607 129.778 125.842  0.00  0.00    +0.006 C 
ATOM     25  C   UNL     1     113.903 128.484 125.105  0.00  0.00    +0.045 C 
ENDROOT
BRANCH  23  26
ATOM     26  C   UNL     1     114.331 129.104 122.682  0.00  0.00    +0.041 C 
ATOM     27  C   UNL     1     114.562 130.589 122.408  0.00  0.00    +0.007 C 
ENDBRANCH  23  26
BRANCH  10  28
ATOM     28  O   UNL     1     125.028 129.615 124.510  0.00  0.00    -0.345 OA
BRANCH  28  30
ATOM     29  O   UNL     1     126.627 131.425 124.306  0.00  0.00    -0.343 OA
ATOM     30  C   UNL     1     126.207 130.259 125.015  0.00  0.00    +0.282 C 
ATOM     31  C   UNL     1     127.373 129.316 125.367  0.00  0.00    +0.205 C 
ATOM     32  C   UNL     1     128.203 128.962 124.129  0.00  0.00    +0.179 C 
ATOM     33  C   UNL     1     127.422 131.244 123.137  0.00  0.00    +0.150 C 
ATOM     34  C   UNL     1     128.540 130.174 123.234  0.00  0.00    +0.177 C 
ATOM     35  C   UNL     1     128.020 132.605 122.787  0.00  0.00    +0.041 C 
BRANCH  31  36
ATOM     36  O   UNL     1     128.204 129.761 126.474  0.00  0.00    -0.372 OA
ATOM     37  C   UNL     1     128.036 129.152 127.745  0.00  0.00    +0.194 C 
ENDBRANCH  31  36
BRANCH  32  38
ATOM     38  O   UNL     1     129.404 128.274 124.532  0.00  0.00    -0.386 OA
ATOM     39  H   UNL     1     129.502 127.503 123.939  0.00  0.00    +0.210 HD
ENDBRANCH  32  38
BRANCH  34  40
ATOM     40  O   UNL     1     129.062 129.770 121.949  0.00  0.00    -0.375 OA
ATOM     41  C   UNL     1     128.270 128.893 121.162  0.00  0.00    +0.194 C 
ENDBRANCH  34  40
ENDBRANCH  28  30
ENDBRANCH  10  28
BRANCH  20  42
ATOM     42  O   UNL     1     115.928 131.049 126.864  0.00  0.00    -0.347 OA
BRANCH  42  44
ATOM     43  O   UNL     1     115.020 133.152 127.568  0.00  0.00    -0.347 OA
ATOM     44  C   UNL     1     116.195 132.393 127.315  0.00  0.00    +0.251 C 
ATOM     45  C   UNL     1     117.311 133.005 126.474  0.00  0.00    +0.063 C 
ATOM     46  C   UNL     1     116.829 134.037 125.484  0.00  0.00    +0.026 C 
ATOM     47  C   UNL     1     115.843 135.045 126.077  0.00  0.00    +0.085 C 
ATOM     48  C   UNL     1     114.700 134.345 126.851  0.00  0.00    +0.135 C 
ATOM     49  C   UNL     1     113.458 134.175 125.962  0.00  0.00    +0.039 C 
BRANCH  47  50
ATOM     50  N   UNL     1     116.515 136.154 126.807  0.00  0.00    -0.303 NA
ATOM     51  C   UNL     1     117.028 137.150 125.852  0.00  0.00    +0.105 C 
ATOM     52  C   UNL     1     115.694 136.841 127.806  0.00  0.00    +0.105 C 
ENDBRANCH  47  50
ENDBRANCH  42  44
ENDBRANCH  20  42
TORSDOF 9
ENDMDL
MODEL 12
REMARK VINA RESULT:      -7.8     58.590     62.443
REMARK  Name = 
REMARK  17 active torsions:
REMARK  status: ('A' for Active; 'I' for Inactive)
REMARK    1  A    between atoms: O_1  and  C_18
REMARK    2  A    between atoms: O_1  and  C_26
REMARK    3  A    between atoms: O_5  and  C_30
REMARK    4  A    between atoms: O_5  and  C_40
REMARK    5  A    between atoms: O_6  and  C_29
REMARK    6  A    between atoms: O_6  and  C_43
REMARK    7  A    between atoms: O_8  and  C_31
REMARK    8  A    between atoms: O_9  and  C_34
REMARK    9  A    between atoms: O_9  and  C_48
REMARK   10  A    between atoms: N_11  and  C_45
REMARK   11  A    between atoms: N_11  and  C_50
REMARK   12  A    between atoms: N_11  and  C_51
REMARK   13  A    between atoms: C_27  and  C_33
REMARK   14  A    between atoms: C_32  and  C_39
REMARK   15  A    between atoms: C_36  and  C_41
REMARK   16  A    between atoms: C_41  and  C_47
REMARK   17  A    between atoms: C_46  and  C_49
REMARK                            x       y       z     vdW  Elec       q    Type
REMARK                         _______ _______ _______ _____ _____    ______ ____
ROOT
ATOM      1  O   UNL     1     130.984 121.616  69.135  0.00  0.00    -0.292 OA
ATOM      2  O   UNL     1     132.877 116.465  65.708  0.00  0.00    -0.461 OA
ATOM      3  O   UNL     1     131.462 117.536  64.313  0.00  0.00    -0.251 OA
ATOM      4  C   UNL     1     129.327 121.965  64.548  0.00  0.00    +0.006 C 
ATOM      5  C   UNL     1     129.926 120.790  65.298  0.00  0.00    +0.023 C 
ATOM      6  C   UNL     1     129.159 123.127  65.502  0.00  0.00    +0.018 C 
ATOM      7  C   UNL     1     131.454 121.098  65.318  0.00  0.00    +0.027 C 
ATOM      8  C   UNL     1     128.060 121.760  63.752  0.00  0.00    +0.036 C 
ATOM      9  C   UNL     1     128.202 124.019  64.711  0.00  0.00    +0.039 C 
ATOM     10  C   UNL     1     127.233 122.999  64.065  0.00  0.00    +0.122 C 
ATOM     11  C   UNL     1     131.859 119.872  66.193  0.00  0.00    +0.040 C 
ATOM     12  C   UNL     1     129.787 120.523  66.849  0.00  0.00    -0.015 C 
ATOM     13  C   UNL     1     130.581 123.493  65.910  0.00  0.00    -0.027 C 
ATOM     14  C   UNL     1     131.610 122.592  65.843  0.00  0.00    -0.026 C 
ATOM     15  C   UNL     1     130.979 120.098  67.376  0.00  0.00    -0.004 C 
ATOM     16  C   UNL     1     132.978 118.912  65.699  0.00  0.00    +0.129 C 
ATOM     17  C   UNL     1     131.342 120.486  68.779  0.00  0.00    +0.164 C 
ATOM     18  C   UNL     1     132.165 119.641  69.763  0.00  0.00    +0.086 C 
ATOM     19  C   UNL     1     132.367 117.591  65.150  0.00  0.00    +0.308 C 
ATOM     20  C   UNL     1     131.685 118.231  70.148  0.00  0.00    +0.132 C 
ATOM     21  C   UNL     1     133.668 119.888  69.711  0.00  0.00    +0.018 C 
ATOM     22  C   UNL     1     132.672 117.036  70.106  0.00  0.00    +0.032 C 
ATOM     23  C   UNL     1     132.031 115.893  66.738  0.00  0.00    +0.176 C 
ATOM     24  C   UNL     1     132.262 115.812  69.282  0.00  0.00    +0.006 C 
ATOM     25  C   UNL     1     132.973 115.823  67.941  0.00  0.00    +0.045 C 
ENDROOT
BRANCH  23  26
ATOM     26  C   UNL     1     131.531 114.487  66.337  0.00  0.00    +0.041 C 
ATOM     27  C   UNL     1     130.146 114.498  65.694  0.00  0.00    +0.007 C 
ENDBRANCH  23  26
BRANCH  10  28
ATOM     28  O   UNL     1     126.600 123.549  62.931  0.00  0.00    -0.345 OA
BRANCH  28  30
ATOM     29  O   UNL     1     127.135 125.624  61.800  0.00  0.00    -0.343 OA
ATOM     30  C   UNL     1     127.375 124.223  61.929  0.00  0.00    +0.282 C 
ATOM     31  C   UNL     1     127.469 123.500  60.572  0.00  0.00    +0.205 C 
ATOM     32  C   UNL     1     126.247 123.791  59.695  0.00  0.00    +0.179 C 
ATOM     33  C   UNL     1     126.034 126.041  60.997  0.00  0.00    +0.150 C 
ATOM     34  C   UNL     1     125.842 125.280  59.660  0.00  0.00    +0.177 C 
ATOM     35  C   UNL     1     126.209 127.535  60.736  0.00  0.00    +0.041 C 
BRANCH  31  36
ATOM     36  O   UNL     1     128.717 123.708  59.856  0.00  0.00    -0.372 OA
ATOM     37  C   UNL     1     129.941 123.412  60.512  0.00  0.00    +0.194 C 
ENDBRANCH  31  36
BRANCH  32  38
ATOM     38  O   UNL     1     126.477 123.291  58.363  0.00  0.00    -0.386 OA
ATOM     39  H   UNL     1     126.388 124.052  57.755  0.00  0.00    +0.210 HD
ENDBRANCH  32  38
BRANCH  34  40
ATOM     40  O   UNL     1     124.536 125.472  59.072  0.00  0.00    -0.375 OA
ATOM     41  C   UNL     1     123.428 124.858  59.712  0.00  0.00    +0.194 C 
ENDBRANCH  34  40
ENDBRANCH  28  30
ENDBRANCH  10  28
BRANCH  20  42
ATOM     42  O   UNL     1     130.418 117.944  69.596  0.00  0.00    -0.347 OA
BRANCH  42  44
ATOM     43  O   UNL     1     129.775 117.419  71.844  0.00  0.00    -0.347 OA
ATOM     44  C   UNL     1     129.351 117.869  70.564  0.00  0.00    +0.251 C 
ATOM     45  C   UNL     1     128.119 117.239  69.924  0.00  0.00    +0.063 C 
ATOM     46  C   UNL     1     127.861 115.820  70.368  0.00  0.00    +0.026 C 
ATOM     47  C   UNL     1     127.974 115.619  71.880  0.00  0.00    +0.085 C 
ATOM     48  C   UNL     1     129.285 116.219  72.444  0.00  0.00    +0.135 C 
ATOM     49  C   UNL     1     130.373 115.142  72.568  0.00  0.00    +0.039 C 
BRANCH  47  50
ATOM     50  N   UNL     1     126.736 116.004  72.611  0.00  0.00    -0.303 NA
ATOM     51  C   UNL     1     126.167 114.830  73.294  0.00  0.00    +0.105 C 
ATOM     52  C   UNL     1     126.889 117.086  73.585  0.00  0.00    +0.105 C 
ENDBRANCH  47  50
ENDBRANCH  42  44
ENDBRANCH  20  42
TORSDOF 9
ENDMDL
MODEL 13
REMARK VINA RESULT:      -7.8     71.443     76.091
REMARK  Name = 
REMARK  17 active torsions:
REMARK  status: ('A' for Active; 'I' for Inactive)
REMARK    1  A    between atoms: O_1  and  C_18
REMARK    2  A    between atoms: O_1  and  C_26
REMARK    3  A    between atoms: O_5  and  C_30
REMARK    4  A    between atoms: O_5  and  C_40
REMARK    5  A    between atoms: O_6  and  C_29
REMARK    6  A    between atoms: O_6  and  C_43
REMARK    7  A    between atoms: O_8  and  C_31
REMARK    8  A    between atoms: O_9  and  C_34
REMARK    9  A    between atoms: O_9  and  C_48
REMARK   10  A    between atoms: N_11  and  C_45
REMARK   11  A    between atoms: N_11  and  C_50
REMARK   12  A    between atoms: N_11  and  C_51
REMARK   13  A    between atoms: C_27  and  C_33
REMARK   14  A    between atoms: C_32  and  C_39
REMARK   15  A    between atoms: C_36  and  C_41
REMARK   16  A    between atoms: C_41  and  C_47
REMARK   17  A    between atoms: C_46  and  C_49
REMARK                            x       y       z     vdW  Elec       q    Type
REMARK                         _______ _______ _______ _____ _____    ______ ____
ROOT
ATOM      1  O   UNL     1     110.779 105.978  54.922  0.00  0.00    -0.292 OA
ATOM      2  O   UNL     1     106.893 105.134  49.817  0.00  0.00    -0.461 OA
ATOM      3  O   UNL     1     106.478 107.261  50.450  0.00  0.00    -0.251 OA
ATOM      4  C   UNL     1     108.708 110.230  53.682  0.00  0.00    +0.006 C 
ATOM      5  C   UNL     1     108.381 108.809  53.261  0.00  0.00    +0.023 C 
ATOM      6  C   UNL     1     109.787 110.197  54.742  0.00  0.00    +0.018 C 
ATOM      7  C   UNL     1     109.495 108.460  52.229  0.00  0.00    +0.027 C 
ATOM      8  C   UNL     1     107.586 111.145  54.113  0.00  0.00    +0.036 C 
ATOM      9  C   UNL     1     109.680 111.611  55.313  0.00  0.00    +0.039 C 
ATOM     10  C   UNL     1     108.152 111.862  55.330  0.00  0.00    +0.122 C 
ATOM     11  C   UNL     1     109.057 106.979  52.006  0.00  0.00    +0.040 C 
ATOM     12  C   UNL     1     108.568 107.521  54.156  0.00  0.00    -0.015 C 
ATOM     13  C   UNL     1     111.002 109.617  54.028  0.00  0.00    -0.027 C 
ATOM     14  C   UNL     1     110.882 108.830  52.913  0.00  0.00    -0.026 C 
ATOM     15  C   UNL     1     109.085 106.489  53.415  0.00  0.00    -0.004 C 
ATOM     16  C   UNL     1     108.815 106.458  50.562  0.00  0.00    +0.129 C 
ATOM     17  C   UNL     1     110.014 105.509  54.069  0.00  0.00    +0.164 C 
ATOM     18  C   UNL     1     110.138 104.018  53.724  0.00  0.00    +0.086 C 
ATOM     19  C   UNL     1     107.292 106.351  50.264  0.00  0.00    +0.308 C 
ATOM     20  C   UNL     1     108.906 103.103  53.828  0.00  0.00    +0.132 C 
ATOM     21  C   UNL     1     111.170 103.697  52.649  0.00  0.00    +0.018 C 
ATOM     22  C   UNL     1     108.546 102.149  52.658  0.00  0.00    +0.032 C 
ATOM     23  C   UNL     1     106.286 104.309  50.844  0.00  0.00    +0.176 C 
ATOM     24  C   UNL     1     107.127 102.240  52.086  0.00  0.00    +0.006 C 
ATOM     25  C   UNL     1     107.136 103.038  50.795  0.00  0.00    +0.045 C 
ENDROOT
BRANCH  23  26
ATOM     26  C   UNL     1     104.807 104.005  50.518  0.00  0.00    +0.041 C 
ATOM     27  C   UNL     1     103.825 104.681  51.473  0.00  0.00    +0.007 C 
ENDBRANCH  23  26
BRANCH  10  28
ATOM     28  O   UNL     1     107.867 113.243  55.348  0.00  0.00    -0.345 OA
BRANCH  28  30
ATOM     29  O   UNL     1     108.266 115.008  56.959  0.00  0.00    -0.343 OA
ATOM     30  C   UNL     1     107.477 113.884  56.571  0.00  0.00    +0.282 C 
ATOM     31  C   UNL     1     107.166 112.932  57.742  0.00  0.00    +0.205 C 
ATOM     32  C   UNL     1     108.442 112.508  58.475  0.00  0.00    +0.179 C 
ATOM     33  C   UNL     1     109.479 114.760  57.665  0.00  0.00    +0.150 C 
ATOM     34  C   UNL     1     109.412 113.671  58.768  0.00  0.00    +0.177 C 
ATOM     35  C   UNL     1     109.932 116.090  58.261  0.00  0.00    +0.041 C 
BRANCH  31  36
ATOM     36  O   UNL     1     106.142 113.408  58.658  0.00  0.00    -0.372 OA
ATOM     37  C   UNL     1     104.869 112.779  58.651  0.00  0.00    +0.194 C 
ENDBRANCH  31  36
BRANCH  32  38
ATOM     38  O   UNL     1     108.094 111.812  59.689  0.00  0.00    -0.386 OA
ATOM     39  H   UNL     1     108.432 112.353  60.432  0.00  0.00    +0.210 HD
ENDBRANCH  32  38
BRANCH  34  40
ATOM     40  O   UNL     1     110.712 113.200  59.189  0.00  0.00    -0.375 OA
ATOM     41  C   UNL     1     111.082 113.407  60.544  0.00  0.00    +0.194 C 
ENDBRANCH  34  40
ENDBRANCH  28  30
ENDBRANCH  10  28
BRANCH  20  42
ATOM     42  O   UNL     1     107.795 103.785  54.369  0.00  0.00    -0.347 OA
BRANCH  42  44
ATOM     43  O   UNL     1     107.781 104.172  56.734  0.00  0.00    -0.347 OA
ATOM     44  C   UNL     1     107.385 103.315  55.670  0.00  0.00    +0.251 C 
ATOM     45  C   UNL     1     107.648 101.818  55.783  0.00  0.00    +0.063 C 
ATOM     46  C   UNL     1     108.830 101.471  56.654  0.00  0.00    +0.026 C 
ATOM     47  C   UNL     1     108.859 102.232  57.982  0.00  0.00    +0.085 C 
ATOM     48  C   UNL     1     108.661 103.753  57.778  0.00  0.00    +0.135 C 
ATOM     49  C   UNL     1     110.013 104.481  57.728  0.00  0.00    +0.039 C 
BRANCH  47  50
ATOM     50  N   UNL     1     107.993 101.615  59.024  0.00  0.00    -0.303 NA
ATOM     51  C   UNL     1     108.529 100.299  59.411  0.00  0.00    +0.105 C 
ATOM     52  C   UNL     1     107.792 102.415  60.233  0.00  0.00    +0.105 C 
ENDBRANCH  47  50
ENDBRANCH  42  44
ENDBRANCH  20  42
TORSDOF 9
ENDMDL
MODEL 14
REMARK VINA RESULT:      -7.8     58.931     62.915
REMARK  Name = 
REMARK  17 active torsions:
REMARK  status: ('A' for Active; 'I' for Inactive)
REMARK    1  A    between atoms: O_1  and  C_18
REMARK    2  A    between atoms: O_1  and  C_26
REMARK    3  A    between atoms: O_5  and  C_30
REMARK    4  A    between atoms: O_5  and  C_40
REMARK    5  A    between atoms: O_6  and  C_29
REMARK    6  A    between atoms: O_6  and  C_43
REMARK    7  A    between atoms: O_8  and  C_31
REMARK    8  A    between atoms: O_9  and  C_34
REMARK    9  A    between atoms: O_9  and  C_48
REMARK   10  A    between atoms: N_11  and  C_45
REMARK   11  A    between atoms: N_11  and  C_50
REMARK   12  A    between atoms: N_11  and  C_51
REMARK   13  A    between atoms: C_27  and  C_33
REMARK   14  A    between atoms: C_32  and  C_39
REMARK   15  A    between atoms: C_36  and  C_41
REMARK   16  A    between atoms: C_41  and  C_47
REMARK   17  A    between atoms: C_46  and  C_49
REMARK                            x       y       z     vdW  Elec       q    Type
REMARK                         _______ _______ _______ _____ _____    ______ ____
ROOT
ATOM      1  O   UNL     1     124.385 134.290  66.789  0.00  0.00    -0.292 OA
ATOM      2  O   UNL     1     130.180 131.454  67.273  0.00  0.00    -0.461 OA
ATOM      3  O   UNL     1     129.841 131.585  65.044  0.00  0.00    -0.251 OA
ATOM      4  C   UNL     1     126.427 133.904  62.363  0.00  0.00    +0.006 C 
ATOM      5  C   UNL     1     126.795 133.254  63.684  0.00  0.00    +0.023 C 
ATOM      6  C   UNL     1     125.142 134.684  62.536  0.00  0.00    +0.018 C 
ATOM      7  C   UNL     1     127.501 134.395  64.477  0.00  0.00    +0.027 C 
ATOM      8  C   UNL     1     126.352 133.050  61.120  0.00  0.00    +0.036 C 
ATOM      9  C   UNL     1     124.730 134.897  61.079  0.00  0.00    +0.039 C 
ATOM     10  C   UNL     1     125.098 133.548  60.415  0.00  0.00    +0.122 C 
ATOM     11  C   UNL     1     127.698 133.583  65.795  0.00  0.00    +0.040 C 
ATOM     12  C   UNL     1     125.779 132.856  64.826  0.00  0.00    -0.015 C 
ATOM     13  C   UNL     1     125.495 135.783  63.529  0.00  0.00    -0.027 C 
ATOM     14  C   UNL     1     126.538 135.660  64.409  0.00  0.00    -0.026 C 
ATOM     15  C   UNL     1     126.288 133.174  66.059  0.00  0.00    -0.004 C 
ATOM     16  C   UNL     1     129.111 133.493  66.437  0.00  0.00    +0.129 C 
ATOM     17  C   UNL     1     125.354 133.608  67.149  0.00  0.00    +0.164 C 
ATOM     18  C   UNL     1     125.536 133.341  68.650  0.00  0.00    +0.086 C 
ATOM     19  C   UNL     1     129.753 132.104  66.161  0.00  0.00    +0.308 C 
ATOM     20  C   UNL     1     125.653 131.895  69.162  0.00  0.00    +0.132 C 
ATOM     21  C   UNL     1     126.304 134.423  69.401  0.00  0.00    +0.018 C 
ATOM     22  C   UNL     1     126.793 131.508  70.142  0.00  0.00    +0.032 C 
ATOM     23  C   UNL     1     129.264 130.430  67.735  0.00  0.00    +0.176 C 
ATOM     24  C   UNL     1     127.691 130.332  69.747  0.00  0.00    +0.006 C 
ATOM     25  C   UNL     1     129.005 130.845  69.184  0.00  0.00    +0.045 C 
ENDROOT
BRANCH  23  26
ATOM     26  C   UNL     1     129.907 129.026  67.662  0.00  0.00    +0.041 C 
ATOM     27  C   UNL     1     129.580 128.277  66.372  0.00  0.00    +0.007 C 
ENDBRANCH  23  26
BRANCH  10  28
ATOM     28  O   UNL     1     125.263 133.698  59.022  0.00  0.00    -0.345 OA
BRANCH  28  30
ATOM     29  O   UNL     1     127.469 134.546  58.488  0.00  0.00    -0.343 OA
ATOM     30  C   UNL     1     126.543 133.462  58.418  0.00  0.00    +0.282 C 
ATOM     31  C   UNL     1     126.503 132.792  57.031  0.00  0.00    +0.205 C 
ATOM     32  C   UNL     1     126.265 133.817  55.918  0.00  0.00    +0.179 C 
ATOM     33  C   UNL     1     127.372 135.570  57.501  0.00  0.00    +0.150 C 
ATOM     34  C   UNL     1     127.127 135.091  56.046  0.00  0.00    +0.177 C 
ATOM     35  C   UNL     1     128.657 136.390  57.579  0.00  0.00    +0.041 C 
BRANCH  31  36
ATOM     36  O   UNL     1     127.632 131.923  56.743  0.00  0.00    -0.372 OA
ATOM     37  C   UNL     1     127.959 130.894  57.665  0.00  0.00    +0.194 C 
ENDBRANCH  31  36
BRANCH  32  38
ATOM     38  O   UNL     1     126.463 133.192  54.635  0.00  0.00    -0.386 OA
ATOM     39  H   UNL     1     126.476 133.909  53.969  0.00  0.00    +0.210 HD
ENDBRANCH  32  38
BRANCH  34  40
ATOM     40  O   UNL     1     126.675 136.142  55.164  0.00  0.00    -0.375 OA
ATOM     41  C   UNL     1     125.319 136.550  55.266  0.00  0.00    +0.194 C 
ENDBRANCH  34  40
ENDBRANCH  28  30
ENDBRANCH  10  28
BRANCH  20  42
ATOM     42  O   UNL     1     125.450 130.959  68.126  0.00  0.00    -0.347 OA
BRANCH  42  44
ATOM     43  O   UNL     1     123.458 130.515  69.382  0.00  0.00    -0.347 OA
ATOM     44  C   UNL     1     124.176 130.284  68.176  0.00  0.00    +0.251 C 
ATOM     45  C   UNL     1     124.329 128.857  67.663  0.00  0.00    +0.063 C 
ATOM     46  C   UNL     1     124.289 127.811  68.750  0.00  0.00    +0.026 C 
ATOM     47  C   UNL     1     123.155 128.015  69.757  0.00  0.00    +0.085 C 
ATOM     48  C   UNL     1     123.111 129.468  70.289  0.00  0.00    +0.135 C 
ATOM     49  C   UNL     1     123.856 129.586  71.627  0.00  0.00    +0.039 C 
BRANCH  47  50
ATOM     50  N   UNL     1     121.852 127.476  69.281  0.00  0.00    -0.303 NA
ATOM     51  C   UNL     1     122.014 126.082  68.836  0.00  0.00    +0.105 C 
ATOM     52  C   UNL     1     120.753 127.536  70.246  0.00  0.00    +0.105 C 
ENDBRANCH  47  50
ENDBRANCH  42  44
ENDBRANCH  20  42
TORSDOF 9
ENDMDL
MODEL 15
REMARK VINA RESULT:      -7.7     24.368     29.034
REMARK  Name = 
REMARK  17 active torsions:
REMARK  status: ('A' for Active; 'I' for Inactive)
REMARK    1  A    between atoms: O_1  and  C_18
REMARK    2  A    between atoms: O_1  and  C_26
REMARK    3  A    between atoms: O_5  and  C_30
REMARK    4  A    between atoms: O_5  and  C_40
REMARK    5  A    between atoms: O_6  and  C_29
REMARK    6  A    between atoms: O_6  and  C_43
REMARK    7  A    between atoms: O_8  and  C_31
REMARK    8  A    between atoms: O_9  and  C_34
REMARK    9  A    between atoms: O_9  and  C_48
REMARK   10  A    between atoms: N_11  and  C_45
REMARK   11  A    between atoms: N_11  and  C_50
REMARK   12  A    between atoms: N_11  and  C_51
REMARK   13  A    between atoms: C_27  and  C_33
REMARK   14  A    between atoms: C_32  and  C_39
REMARK   15  A    between atoms: C_36  and  C_41
REMARK   16  A    between atoms: C_41  and  C_47
REMARK   17  A    between atoms: C_46  and  C_49
REMARK                            x       y       z     vdW  Elec       q    Type
REMARK                         _______ _______ _______ _____ _____    ______ ____
ROOT
ATOM      1  O   UNL     1      92.189 131.111 139.235  0.00  0.00    -0.292 OA
ATOM      2  O   UNL     1      97.677 128.773 141.740  0.00  0.00    -0.461 OA
ATOM      3  O   UNL     1      98.231 129.245 139.604  0.00  0.00    -0.251 OA
ATOM      4  C   UNL     1      95.848 131.662 136.039  0.00  0.00    +0.006 C 
ATOM      5  C   UNL     1      95.757 130.835 137.309  0.00  0.00    +0.023 C 
ATOM      6  C   UNL     1      94.497 132.281 135.754  0.00  0.00    +0.018 C 
ATOM      7  C   UNL     1      95.909 131.886 138.450  0.00  0.00    +0.027 C 
ATOM      8  C   UNL     1      96.401 131.026 134.786  0.00  0.00    +0.036 C 
ATOM      9  C   UNL     1      94.668 132.698 134.293  0.00  0.00    +0.039 C 
ATOM     10  C   UNL     1      95.469 131.519 133.689  0.00  0.00    +0.122 C 
ATOM     11  C   UNL     1      95.690 130.886 139.627  0.00  0.00    +0.040 C 
ATOM     12  C   UNL     1      94.446 130.160 137.873  0.00  0.00    -0.015 C 
ATOM     13  C   UNL     1      94.258 133.226 136.925  0.00  0.00    -0.027 C 
ATOM     14  C   UNL     1      94.873 133.052 138.136  0.00  0.00    -0.026 C 
ATOM     15  C   UNL     1      94.370 130.312 139.234  0.00  0.00    -0.004 C 
ATOM     16  C   UNL     1      96.729 130.818 140.781  0.00  0.00    +0.129 C 
ATOM     17  C   UNL     1      93.027 130.470 139.882  0.00  0.00    +0.164 C 
ATOM     18  C   UNL     1      92.638 129.972 141.282  0.00  0.00    +0.086 C 
ATOM     19  C   UNL     1      97.631 129.559 140.636  0.00  0.00    +0.308 C 
ATOM     20  C   UNL     1      92.762 128.477 141.624  0.00  0.00    +0.132 C 
ATOM     21  C   UNL     1      92.874 130.978 142.403  0.00  0.00    +0.018 C 
ATOM     22  C   UNL     1      93.465 128.036 142.935  0.00  0.00    +0.032 C 
ATOM     23  C   UNL     1      96.819 127.607 141.660  0.00  0.00    +0.176 C 
ATOM     24  C   UNL     1      94.613 127.030 142.814  0.00  0.00    +0.006 C 
ATOM     25  C   UNL     1      95.948 127.747 142.909  0.00  0.00    +0.045 C 
ENDROOT
BRANCH  23  26
ATOM     26  C   UNL     1      97.643 126.300 141.696  0.00  0.00    +0.041 C 
ATOM     27  C   UNL     1      98.562 126.198 142.912  0.00  0.00    +0.007 C 
ENDBRANCH  23  26
BRANCH  10  28
ATOM     28  O   UNL     1      96.146 131.915 132.517  0.00  0.00    -0.345 OA
BRANCH  28  30
ATOM     29  O   UNL     1      94.463 132.980 131.137  0.00  0.00    -0.343 OA
ATOM     30  C   UNL     1      95.724 133.083 131.799  0.00  0.00    +0.282 C 
ATOM     31  C   UNL     1      96.808 133.752 130.932  0.00  0.00    +0.205 C 
ATOM     32  C   UNL     1      96.935 133.068 129.567  0.00  0.00    +0.179 C 
ATOM     33  C   UNL     1      94.436 132.376 129.846  0.00  0.00    +0.150 C 
ATOM     34  C   UNL     1      95.582 132.780 128.883  0.00  0.00    +0.177 C 
ATOM     35  C   UNL     1      93.081 132.707 129.226  0.00  0.00    +0.041 C 
BRANCH  31  36
ATOM     36  O   UNL     1      96.687 135.195 130.812  0.00  0.00    -0.372 OA
ATOM     37  C   UNL     1      95.562 135.840 131.391  0.00  0.00    +0.194 C 
ENDBRANCH  31  36
BRANCH  32  38
ATOM     38  O   UNL     1      97.785 133.855 128.709  0.00  0.00    -0.386 OA
ATOM     39  H   UNL     1      97.599 134.795 128.911  0.00  0.00    +0.210 HD
ENDBRANCH  32  38
BRANCH  34  40
ATOM     40  O   UNL     1      95.724 131.887 127.755  0.00  0.00    -0.375 OA
ATOM     41  C   UNL     1      95.131 132.279 126.526  0.00  0.00    +0.194 C 
ENDBRANCH  34  40
ENDBRANCH  28  30
ENDBRANCH  10  28
BRANCH  20  42
ATOM     42  O   UNL     1      93.129 127.714 140.496  0.00  0.00    -0.347 OA
BRANCH  42  44
ATOM     43  O   UNL     1      92.356 126.346 138.687  0.00  0.00    -0.347 OA
ATOM     44  C   UNL     1      92.076 126.876 139.976  0.00  0.00    +0.251 C 
ATOM     45  C   UNL     1      90.723 127.530 140.234  0.00  0.00    +0.063 C 
ATOM     46  C   UNL     1      90.089 128.125 139.000  0.00  0.00    +0.026 C 
ATOM     47  C   UNL     1      90.136 127.203 137.780  0.00  0.00    +0.085 C 
ATOM     48  C   UNL     1      91.557 126.637 137.539  0.00  0.00    +0.135 C 
ATOM     49  C   UNL     1      92.314 127.479 136.500  0.00  0.00    +0.039 C 
BRANCH  47  50
ATOM     50  N   UNL     1      89.044 126.191 137.775  0.00  0.00    -0.303 NA
ATOM     51  C   UNL     1      87.745 126.850 137.991  0.00  0.00    +0.105 C 
ATOM     52  C   UNL     1      88.956 125.363 136.571  0.00  0.00    +0.105 C 
ENDBRANCH  47  50
ENDBRANCH  42  44
ENDBRANCH  20  42
TORSDOF 9
ENDMDL
MODEL 16
REMARK VINA RESULT:      -7.7     94.370     97.865
REMARK  Name = 
REMARK  17 active torsions:
REMARK  status: ('A' for Active; 'I' for Inactive)
REMARK    1  A    between atoms: O_1  and  C_18
REMARK    2  A    between atoms: O_1  and  C_26
REMARK    3  A    between atoms: O_5  and  C_30
REMARK    4  A    between atoms: O_5  and  C_40
REMARK    5  A    between atoms: O_6  and  C_29
REMARK    6  A    between atoms: O_6  and  C_43
REMARK    7  A    between atoms: O_8  and  C_31
REMARK    8  A    between atoms: O_9  and  C_34
REMARK    9  A    between atoms: O_9  and  C_48
REMARK   10  A    between atoms: N_11  and  C_45
REMARK   11  A    between atoms: N_11  and  C_50
REMARK   12  A    between atoms: N_11  and  C_51
REMARK   13  A    between atoms: C_27  and  C_33
REMARK   14  A    between atoms: C_32  and  C_39
REMARK   15  A    between atoms: C_36  and  C_41
REMARK   16  A    between atoms: C_41  and  C_47
REMARK   17  A    between atoms: C_46  and  C_49
REMARK                            x       y       z     vdW  Elec       q    Type
REMARK                         _______ _______ _______ _____ _____    ______ ____
ROOT
ATOM      1  O   UNL     1     135.520 115.187  31.092  0.00  0.00    -0.292 OA
ATOM      2  O   UNL     1     137.941 117.851  36.469  0.00  0.00    -0.461 OA
ATOM      3  O   UNL     1     139.709 117.793  35.066  0.00  0.00    -0.251 OA
ATOM      4  C   UNL     1     140.074 116.764  30.267  0.00  0.00    +0.006 C 
ATOM      5  C   UNL     1     139.314 116.566  31.566  0.00  0.00    +0.023 C 
ATOM      6  C   UNL     1     139.232 116.253  29.118  0.00  0.00    +0.018 C 
ATOM      7  C   UNL     1     138.350 117.789  31.624  0.00  0.00    +0.027 C 
ATOM      8  C   UNL     1     141.484 116.234  30.152  0.00  0.00    +0.036 C 
ATOM      9  C   UNL     1     140.280 116.149  28.010  0.00  0.00    +0.039 C 
ATOM     10  C   UNL     1     141.526 115.618  28.761  0.00  0.00    +0.122 C 
ATOM     11  C   UNL     1     137.613 117.357  32.929  0.00  0.00    +0.040 C 
ATOM     12  C   UNL     1     138.210 115.467  31.825  0.00  0.00    -0.015 C 
ATOM     13  C   UNL     1     138.013 117.167  29.105  0.00  0.00    -0.027 C 
ATOM     14  C   UNL     1     137.603 117.848  30.220  0.00  0.00    -0.026 C 
ATOM     15  C   UNL     1     137.158 115.994  32.529  0.00  0.00    -0.004 C 
ATOM     16  C   UNL     1     137.498 118.358  34.113  0.00  0.00    +0.129 C 
ATOM     17  C   UNL     1     135.772 115.486  32.267  0.00  0.00    +0.164 C 
ATOM     18  C   UNL     1     134.642 115.376  33.302  0.00  0.00    +0.086 C 
ATOM     19  C   UNL     1     138.503 117.992  35.242  0.00  0.00    +0.308 C 
ATOM     20  C   UNL     1     134.844 114.526  34.568  0.00  0.00    +0.132 C 
ATOM     21  C   UNL     1     133.758 116.613  33.412  0.00  0.00    +0.018 C 
ATOM     22  C   UNL     1     134.486 115.109  35.960  0.00  0.00    +0.032 C 
ATOM     23  C   UNL     1     137.714 116.470  36.849  0.00  0.00    +0.176 C 
ATOM     24  C   UNL     1     135.576 115.083  37.036  0.00  0.00    +0.006 C 
ATOM     25  C   UNL     1     136.217 116.453  37.163  0.00  0.00    +0.045 C 
ENDROOT
BRANCH  23  26
ATOM     26  C   UNL     1     138.551 116.085  38.090  0.00  0.00    +0.041 C 
ATOM     27  C   UNL     1     138.114 116.807  39.362  0.00  0.00    +0.007 C 
ENDBRANCH  23  26
BRANCH  10  28
ATOM     28  O   UNL     1     142.709 115.915  28.054  0.00  0.00    -0.345 OA
BRANCH  28  30
ATOM     29  O   UNL     1     145.121 116.142  28.017  0.00  0.00    -0.343 OA
ATOM     30  C   UNL     1     143.980 115.478  28.558  0.00  0.00    +0.282 C 
ATOM     31  C   UNL     1     144.160 113.950  28.653  0.00  0.00    +0.205 C 
ATOM     32  C   UNL     1     144.585 113.350  27.309  0.00  0.00    +0.179 C 
ATOM     33  C   UNL     1     145.636 115.676  26.772  0.00  0.00    +0.150 C 
ATOM     34  C   UNL     1     145.708 114.136  26.600  0.00  0.00    +0.177 C 
ATOM     35  C   UNL     1     147.022 116.293  26.601  0.00  0.00    +0.041 C 
BRANCH  31  36
ATOM     36  O   UNL     1     145.009 113.504  29.745  0.00  0.00    -0.372 OA
ATOM     37  C   UNL     1     144.401 113.042  30.942  0.00  0.00    +0.194 C 
ENDBRANCH  31  36
BRANCH  32  38
ATOM     38  O   UNL     1     144.962 111.971  27.494  0.00  0.00    -0.386 OA
ATOM     39  H   UNL     1     145.226 111.630  26.616  0.00  0.00    +0.210 HD
ENDBRANCH  32  38
BRANCH  34  40
ATOM     40  O   UNL     1     145.877 113.719  25.227  0.00  0.00    -0.375 OA
ATOM     41  C   UNL     1     144.922 114.170  24.279  0.00  0.00    +0.194 C 
ENDBRANCH  34  40
ENDBRANCH  28  30
ENDBRANCH  10  28
BRANCH  20  42
ATOM     42  O   UNL     1     136.073 113.834  34.539  0.00  0.00    -0.347 OA
BRANCH  42  44
ATOM     43  O   UNL     1     136.569 111.815  33.347  0.00  0.00    -0.347 OA
ATOM     44  C   UNL     1     135.946 112.398  34.485  0.00  0.00    +0.251 C 
ATOM     45  C   UNL     1     134.520 111.994  34.841  0.00  0.00    +0.063 C 
ATOM     46  C   UNL     1     133.700 111.546  33.655  0.00  0.00    +0.026 C 
ATOM     47  C   UNL     1     134.434 110.571  32.733  0.00  0.00    +0.085 C 
ATOM     48  C   UNL     1     135.845 111.085  32.356  0.00  0.00    +0.135 C 
ATOM     49  C   UNL     1     135.821 111.808  31.001  0.00  0.00    +0.039 C 
BRANCH  47  50
ATOM     50  N   UNL     1     134.382 109.164  33.218  0.00  0.00    -0.303 NA
ATOM     51  C   UNL     1     133.304 108.433  32.532  0.00  0.00    +0.105 C 
ATOM     52  C   UNL     1     135.626 108.403  33.081  0.00  0.00    +0.105 C 
ENDBRANCH  47  50
ENDBRANCH  42  44
ENDBRANCH  20  42
TORSDOF 9
ENDMDL
MODEL 17
REMARK VINA RESULT:      -7.6     92.802     96.415
REMARK  Name = 
REMARK  17 active torsions:
REMARK  status: ('A' for Active; 'I' for Inactive)
REMARK    1  A    between atoms: O_1  and  C_18
REMARK    2  A    between atoms: O_1  and  C_26
REMARK    3  A    between atoms: O_5  and  C_30
REMARK    4  A    between atoms: O_5  and  C_40
REMARK    5  A    between atoms: O_6  and  C_29
REMARK    6  A    between atoms: O_6  and  C_43
REMARK    7  A    between atoms: O_8  and  C_31
REMARK    8  A    between atoms: O_9  and  C_34
REMARK    9  A    between atoms: O_9  and  C_48
REMARK   10  A    between atoms: N_11  and  C_45
REMARK   11  A    between atoms: N_11  and  C_50
REMARK   12  A    between atoms: N_11  and  C_51
REMARK   13  A    between atoms: C_27  and  C_33
REMARK   14  A    between atoms: C_32  and  C_39
REMARK   15  A    between atoms: C_36  and  C_41
REMARK   16  A    between atoms: C_41  and  C_47
REMARK   17  A    between atoms: C_46  and  C_49
REMARK                            x       y       z     vdW  Elec       q    Type
REMARK                         _______ _______ _______ _____ _____    ______ ____
ROOT
ATOM      1  O   UNL     1     135.009 120.275  31.588  0.00  0.00    -0.292 OA
ATOM      2  O   UNL     1     139.995 117.448  28.587  0.00  0.00    -0.461 OA
ATOM      3  O   UNL     1     139.144 115.795  29.869  0.00  0.00    -0.251 OA
ATOM      4  C   UNL     1     135.000 115.473  32.505  0.00  0.00    +0.006 C 
ATOM      5  C   UNL     1     136.072 116.365  31.906  0.00  0.00    +0.023 C 
ATOM      6  C   UNL     1     133.838 116.330  32.958  0.00  0.00    +0.018 C 
ATOM      7  C   UNL     1     135.580 116.610  30.447  0.00  0.00    +0.027 C 
ATOM      8  C   UNL     1     135.380 114.497  33.594  0.00  0.00    +0.036 C 
ATOM      9  C   UNL     1     133.093 115.355  33.869  0.00  0.00    +0.039 C 
ATOM     10  C   UNL     1     134.242 114.614  34.597  0.00  0.00    +0.122 C 
ATOM     11  C   UNL     1     136.722 117.598  30.052  0.00  0.00    +0.040 C 
ATOM     12  C   UNL     1     136.306 117.885  32.265  0.00  0.00    -0.015 C 
ATOM     13  C   UNL     1     133.292 116.939  31.673  0.00  0.00    -0.027 C 
ATOM     14  C   UNL     1     134.064 117.080  30.550  0.00  0.00    -0.026 C 
ATOM     15  C   UNL     1     136.568 118.614  31.133  0.00  0.00    -0.004 C 
ATOM     16  C   UNL     1     137.554 117.335  28.766  0.00  0.00    +0.129 C 
ATOM     17  C   UNL     1     136.098 120.036  31.050  0.00  0.00    +0.164 C 
ATOM     18  C   UNL     1     136.807 121.178  30.308  0.00  0.00    +0.086 C 
ATOM     19  C   UNL     1     138.955 116.762  29.124  0.00  0.00    +0.308 C 
ATOM     20  C   UNL     1     138.252 121.551  30.680  0.00  0.00    +0.132 C 
ATOM     21  C   UNL     1     136.382 121.353  28.854  0.00  0.00    +0.018 C 
ATOM     22  C   UNL     1     139.321 121.725  29.568  0.00  0.00    +0.032 C 
ATOM     23  C   UNL     1     140.633 118.358  29.518  0.00  0.00    +0.176 C 
ATOM     24  C   UNL     1     140.610 120.907  29.697  0.00  0.00    +0.006 C 
ATOM     25  C   UNL     1     140.552 119.696  28.782  0.00  0.00    +0.045 C 
ENDROOT
BRANCH  23  26
ATOM     26  C   UNL     1     142.101 117.952  29.782  0.00  0.00    +0.041 C 
ATOM     27  C   UNL     1     142.761 117.261  28.591  0.00  0.00    +0.007 C 
ENDBRANCH  23  26
BRANCH  10  28
ATOM     28  O   UNL     1     133.806 113.369  35.095  0.00  0.00    -0.345 OA
BRANCH  28  30
ATOM     29  O   UNL     1     135.622 111.796  34.776  0.00  0.00    -0.343 OA
ATOM     30  C   UNL     1     134.746 112.460  35.686  0.00  0.00    +0.282 C 
ATOM     31  C   UNL     1     134.166 111.519  36.760  0.00  0.00    +0.205 C 
ATOM     32  C   UNL     1     133.507 110.288  36.130  0.00  0.00    +0.179 C 
ATOM     33  C   UNL     1     135.142 110.621  34.126  0.00  0.00    +0.150 C 
ATOM     34  C   UNL     1     134.346 109.630  35.015  0.00  0.00    +0.177 C 
ATOM     35  C   UNL     1     136.352 109.925  33.508  0.00  0.00    +0.041 C 
BRANCH  31  36
ATOM     36  O   UNL     1     135.093 111.161  37.821  0.00  0.00    -0.372 OA
ATOM     37  C   UNL     1     136.016 112.136  38.282  0.00  0.00    +0.194 C 
ENDBRANCH  31  36
BRANCH  32  38
ATOM     38  O   UNL     1     133.185 109.332  37.160  0.00  0.00    -0.386 OA
ATOM     39  H   UNL     1     132.415 109.689  37.648  0.00  0.00    +0.210 HD
ENDBRANCH  32  38
BRANCH  34  40
ATOM     40  O   UNL     1     133.580 108.668  34.256  0.00  0.00    -0.375 OA
ATOM     41  C   UNL     1     134.062 107.333  34.207  0.00  0.00    +0.194 C 
ENDBRANCH  34  40
ENDBRANCH  28  30
ENDBRANCH  10  28
BRANCH  20  42
ATOM     42  O   UNL     1     138.707 120.821  31.798  0.00  0.00    -0.347 OA
BRANCH  42  44
ATOM     43  O   UNL     1     137.491 122.004  33.491  0.00  0.00    -0.347 OA
ATOM     44  C   UNL     1     138.766 121.582  33.022  0.00  0.00    +0.251 C 
ATOM     45  C   UNL     1     139.903 122.596  32.944  0.00  0.00    +0.063 C 
ATOM     46  C   UNL     1     139.438 124.017  32.744  0.00  0.00    +0.026 C 
ATOM     47  C   UNL     1     138.279 124.419  33.660  0.00  0.00    +0.085 C 
ATOM     48  C   UNL     1     137.133 123.379  33.628  0.00  0.00    +0.135 C 
ATOM     49  C   UNL     1     136.039 123.799  32.635  0.00  0.00    +0.039 C 
BRANCH  47  50
ATOM     50  N   UNL     1     138.728 124.825  35.020  0.00  0.00    -0.303 NA
ATOM     51  C   UNL     1     138.435 123.756  35.988  0.00  0.00    +0.105 C 
ATOM     52  C   UNL     1     140.141 125.190  35.136  0.00  0.00    +0.105 C 
ENDBRANCH  47  50
ENDBRANCH  42  44
ENDBRANCH  20  42
TORSDOF 9
ENDMDL
MODEL 18
REMARK VINA RESULT:      -7.5     15.510     20.515
REMARK  Name = 
REMARK  17 active torsions:
REMARK  status: ('A' for Active; 'I' for Inactive)
REMARK    1  A    between atoms: O_1  and  C_18
REMARK    2  A    between atoms: O_1  and  C_26
REMARK    3  A    between atoms: O_5  and  C_30
REMARK    4  A    between atoms: O_5  and  C_40
REMARK    5  A    between atoms: O_6  and  C_29
REMARK    6  A    between atoms: O_6  and  C_43
REMARK    7  A    between atoms: O_8  and  C_31
REMARK    8  A    between atoms: O_9  and  C_34
REMARK    9  A    between atoms: O_9  and  C_48
REMARK   10  A    between atoms: N_11  and  C_45
REMARK   11  A    between atoms: N_11  and  C_50
REMARK   12  A    between atoms: N_11  and  C_51
REMARK   13  A    between atoms: C_27  and  C_33
REMARK   14  A    between atoms: C_32  and  C_39
REMARK   15  A    between atoms: C_36  and  C_41
REMARK   16  A    between atoms: C_41  and  C_47
REMARK   17  A    between atoms: C_46  and  C_49
REMARK                            x       y       z     vdW  Elec       q    Type
REMARK                         _______ _______ _______ _____ _____    ______ ____
ROOT
ATOM      1  O   UNL     1     127.696 116.310 128.952  0.00  0.00    -0.292 OA
ATOM      2  O   UNL     1     128.365 118.511 122.904  0.00  0.00    -0.461 OA
ATOM      3  O   UNL     1     126.968 116.753 122.674  0.00  0.00    -0.251 OA
ATOM      4  C   UNL     1     124.598 113.976 125.975  0.00  0.00    +0.006 C 
ATOM      5  C   UNL     1     125.791 114.861 125.666  0.00  0.00    +0.023 C 
ATOM      6  C   UNL     1     124.518 113.758 127.470  0.00  0.00    +0.018 C 
ATOM      7  C   UNL     1     125.262 116.304 125.928  0.00  0.00    +0.027 C 
ATOM      8  C   UNL     1     124.454 112.658 125.251  0.00  0.00    +0.036 C 
ATOM      9  C   UNL     1     123.567 112.563 127.541  0.00  0.00    +0.039 C 
ATOM     10  C   UNL     1     124.015 111.692 126.342  0.00  0.00    +0.122 C 
ATOM     11  C   UNL     1     126.620 117.028 125.666  0.00  0.00    +0.040 C 
ATOM     12  C   UNL     1     127.091 114.993 126.553  0.00  0.00    -0.015 C 
ATOM     13  C   UNL     1     124.247 115.143 128.042  0.00  0.00    -0.027 C 
ATOM     14  C   UNL     1     124.586 116.287 127.368  0.00  0.00    -0.026 C 
ATOM     15  C   UNL     1     127.489 116.302 126.637  0.00  0.00    -0.004 C 
ATOM     16  C   UNL     1     126.679 118.206 124.655  0.00  0.00    +0.129 C 
ATOM     17  C   UNL     1     128.133 116.794 127.899  0.00  0.00    +0.164 C 
ATOM     18  C   UNL     1     129.217 117.878 127.994  0.00  0.00    +0.086 C 
ATOM     19  C   UNL     1     127.321 117.748 123.314  0.00  0.00    +0.308 C 
ATOM     20  C   UNL     1     130.548 117.697 127.244  0.00  0.00    +0.132 C 
ATOM     21  C   UNL     1     128.686 119.297 128.162  0.00  0.00    +0.018 C 
ATOM     22  C   UNL     1     131.113 118.852 126.375  0.00  0.00    +0.032 C 
ATOM     23  C   UNL     1     129.661 117.929 123.197  0.00  0.00    +0.176 C 
ATOM     24  C   UNL     1     131.453 118.534 124.915  0.00  0.00    +0.006 C 
ATOM     25  C   UNL     1     130.347 119.033 124.002  0.00  0.00    +0.045 C 
ENDROOT
BRANCH  23  26
ATOM     26  C   UNL     1     130.440 117.614 121.900  0.00  0.00    +0.041 C 
ATOM     27  C   UNL     1     130.812 116.140 121.760  0.00  0.00    +0.007 C 
ENDBRANCH  23  26
BRANCH  10  28
ATOM     28  O   UNL     1     122.983 110.821 125.935  0.00  0.00    -0.345 OA
BRANCH  28  30
ATOM     29  O   UNL     1     120.707 111.601 125.650  0.00  0.00    -0.343 OA
ATOM     30  C   UNL     1     121.959 111.284 125.042  0.00  0.00    +0.282 C 
ATOM     31  C   UNL     1     121.810 110.479 123.737  0.00  0.00    +0.205 C 
ATOM     32  C   UNL     1     120.944 109.232 123.943  0.00  0.00    +0.179 C 
ATOM     33  C   UNL     1     119.792 110.534 125.887  0.00  0.00    +0.150 C 
ATOM     34  C   UNL     1     119.653 109.492 124.746  0.00  0.00    +0.177 C 
ATOM     35  C   UNL     1     118.437 111.166 126.196  0.00  0.00    +0.041 C 
BRANCH  31  36
ATOM     36  O   UNL     1     121.383 111.258 122.587  0.00  0.00    -0.372 OA
ATOM     37  C   UNL     1     122.073 112.459 122.278  0.00  0.00    +0.194 C 
ENDBRANCH  31  36
BRANCH  32  38
ATOM     38  O   UNL     1     120.641 108.638 122.665  0.00  0.00    -0.386 OA
ATOM     39  H   UNL     1     121.041 107.745 122.665  0.00  0.00    +0.210 HD
ENDBRANCH  32  38
BRANCH  34  40
ATOM     40  O   UNL     1     119.018 108.263 125.166  0.00  0.00    -0.375 OA
ATOM     41  C   UNL     1     119.768 107.382 125.990  0.00  0.00    +0.194 C 
ENDBRANCH  34  40
ENDBRANCH  28  30
ENDBRANCH  10  28
BRANCH  20  42
ATOM     42  O   UNL     1     130.631 116.429 126.630  0.00  0.00    -0.347 OA
BRANCH  42  44
ATOM     43  O   UNL     1     132.906 116.121 127.315  0.00  0.00    -0.347 OA
ATOM     44  C   UNL     1     131.609 115.547 127.218  0.00  0.00    +0.251 C 
ATOM     45  C   UNL     1     131.456 114.147 126.634  0.00  0.00    +0.063 C 
ATOM     46  C   UNL     1     132.540 113.775 125.652  0.00  0.00    +0.026 C 
ATOM     47  C   UNL     1     133.951 114.121 126.134  0.00  0.00    +0.085 C 
ATOM     48  C   UNL     1     134.044 115.580 126.642  0.00  0.00    +0.135 C 
ATOM     49  C   UNL     1     134.566 116.513 125.539  0.00  0.00    +0.039 C 
BRANCH  47  50
ATOM     50  N   UNL     1     134.519 113.095 127.051  0.00  0.00    -0.303 NA
ATOM     51  C   UNL     1     134.537 113.606 128.432  0.00  0.00    +0.105 C 
ATOM     52  C   UNL     1     133.844 111.795 127.040  0.00  0.00    +0.105 C 
ENDBRANCH  47  50
ENDBRANCH  42  44
ENDBRANCH  20  42
TORSDOF 9
ENDMDL
MODEL 19
REMARK VINA RESULT:      -7.5     94.591     98.071
REMARK  Name = 
REMARK  17 active torsions:
REMARK  status: ('A' for Active; 'I' for Inactive)
REMARK    1  A    between atoms: O_1  and  C_18
REMARK    2  A    between atoms: O_1  and  C_26
REMARK    3  A    between atoms: O_5  and  C_30
REMARK    4  A    between atoms: O_5  and  C_40
REMARK    5  A    between atoms: O_6  and  C_29
REMARK    6  A    between atoms: O_6  and  C_43
REMARK    7  A    between atoms: O_8  and  C_31
REMARK    8  A    between atoms: O_9  and  C_34
REMARK    9  A    between atoms: O_9  and  C_48
REMARK   10  A    between atoms: N_11  and  C_45
REMARK   11  A    between atoms: N_11  and  C_50
REMARK   12  A    between atoms: N_11  and  C_51
REMARK   13  A    between atoms: C_27  and  C_33
REMARK   14  A    between atoms: C_32  and  C_39
REMARK   15  A    between atoms: C_36  and  C_41
REMARK   16  A    between atoms: C_41  and  C_47
REMARK   17  A    between atoms: C_46  and  C_49
REMARK                            x       y       z     vdW  Elec       q    Type
REMARK                         _______ _______ _______ _____ _____    ______ ____
ROOT
ATOM      1  O   UNL     1     135.837 116.088  30.235  0.00  0.00    -0.292 OA
ATOM      2  O   UNL     1     137.279 116.940  36.485  0.00  0.00    -0.461 OA
ATOM      3  O   UNL     1     139.291 116.590  35.522  0.00  0.00    -0.251 OA
ATOM      4  C   UNL     1     140.687 116.332  30.809  0.00  0.00    +0.006 C 
ATOM      5  C   UNL     1     139.576 116.155  31.828  0.00  0.00    +0.023 C 
ATOM      6  C   UNL     1     140.091 116.303  29.418  0.00  0.00    +0.018 C 
ATOM      7  C   UNL     1     138.970 117.584  31.971  0.00  0.00    +0.027 C 
ATOM      8  C   UNL     1     141.895 115.428  30.874  0.00  0.00    +0.036 C 
ATOM      9  C   UNL     1     141.343 116.077  28.569  0.00  0.00    +0.039 C 
ATOM     10  C   UNL     1     142.161 115.074  29.418  0.00  0.00    +0.122 C 
ATOM     11  C   UNL     1     137.820 117.179  32.945  0.00  0.00    +0.040 C 
ATOM     12  C   UNL     1     138.205 115.413  31.572  0.00  0.00    -0.015 C 
ATOM     13  C   UNL     1     139.191 117.530  29.364  0.00  0.00    -0.027 C 
ATOM     14  C   UNL     1     138.675 118.103  30.496  0.00  0.00    -0.026 C 
ATOM     15  C   UNL     1     137.167 116.106  32.140  0.00  0.00    -0.004 C 
ATOM     16  C   UNL     1     137.639 117.950  34.282  0.00  0.00    +0.129 C 
ATOM     17  C   UNL     1     135.824 116.093  31.473  0.00  0.00    +0.164 C 
ATOM     18  C   UNL     1     134.464 116.155  32.184  0.00  0.00    +0.086 C 
ATOM     19  C   UNL     1     138.172 117.111  35.478  0.00  0.00    +0.308 C 
ATOM     20  C   UNL     1     134.093 115.081  33.221  0.00  0.00    +0.132 C 
ATOM     21  C   UNL     1     133.921 117.564  32.397  0.00  0.00    +0.018 C 
ATOM     22  C   UNL     1     133.525 115.499  34.603  0.00  0.00    +0.032 C 
ATOM     23  C   UNL     1     136.620 115.648  36.463  0.00  0.00    +0.176 C 
ATOM     24  C   UNL     1     134.236 114.961  35.849  0.00  0.00    +0.006 C 
ATOM     25  C   UNL     1     135.140 116.031  36.436  0.00  0.00    +0.045 C 
ENDROOT
BRANCH  23  26
ATOM     26  C   UNL     1     136.962 114.823  37.724  0.00  0.00    +0.041 C 
ATOM     27  C   UNL     1     136.258 115.323  38.984  0.00  0.00    +0.007 C 
ENDBRANCH  23  26
BRANCH  10  28
ATOM     28  O   UNL     1     143.528 115.116  29.074  0.00  0.00    -0.345 OA
BRANCH  28  30
ATOM     29  O   UNL     1     143.686 115.212  26.658  0.00  0.00    -0.343 OA
ATOM     30  C   UNL     1     143.957 115.839  27.911  0.00  0.00    +0.282 C 
ATOM     31  C   UNL     1     145.375 116.437  27.993  0.00  0.00    +0.205 C 
ATOM     32  C   UNL     1     146.443 115.399  27.632  0.00  0.00    +0.179 C 
ATOM     33  C   UNL     1     144.610 114.232  26.190  0.00  0.00    +0.150 C 
ATOM     34  C   UNL     1     146.112 114.572  26.372  0.00  0.00    +0.177 C 
ATOM     35  C   UNL     1     144.296 113.989  24.716  0.00  0.00    +0.041 C 
BRANCH  31  36
ATOM     36  O   UNL     1     145.554 117.682  27.264  0.00  0.00    -0.372 OA
ATOM     37  C   UNL     1     145.188 118.902  27.891  0.00  0.00    +0.194 C 
ENDBRANCH  31  36
BRANCH  32  38
ATOM     38  O   UNL     1     147.722 116.049  27.497  0.00  0.00    -0.386 OA
ATOM     39  H   UNL     1     148.249 115.804  28.285  0.00  0.00    +0.210 HD
ENDBRANCH  32  38
BRANCH  34  40
ATOM     40  O   UNL     1     146.981 113.426  26.232  0.00  0.00    -0.375 OA
ATOM     41  C   UNL     1     147.204 112.624  27.382  0.00  0.00    +0.194 C 
ENDBRANCH  34  40
ENDBRANCH  28  30
ENDBRANCH  10  28
BRANCH  20  42
ATOM     42  O   UNL     1     135.070 114.065  33.290  0.00  0.00    -0.347 OA
BRANCH  42  44
ATOM     43  O   UNL     1     134.377 111.914  34.087  0.00  0.00    -0.347 OA
ATOM     44  C   UNL     1     134.584 112.749  32.954  0.00  0.00    +0.251 C 
ATOM     45  C   UNL     1     135.358 112.203  31.759  0.00  0.00    +0.063 C 
ATOM     46  C   UNL     1     136.354 111.128  32.119  0.00  0.00    +0.026 C 
ATOM     47  C   UNL     1     135.794 110.062  33.063  0.00  0.00    +0.085 C 
ATOM     48  C   UNL     1     135.089 110.693  34.289  0.00  0.00    +0.135 C 
ATOM     49  C   UNL     1     136.040 110.765  35.493  0.00  0.00    +0.039 C 
BRANCH  47  50
ATOM     50  N   UNL     1     135.012 109.012  32.355  0.00  0.00    -0.303 NA
ATOM     51  C   UNL     1     135.561 107.681  32.664  0.00  0.00    +0.105 C 
ATOM     52  C   UNL     1     133.574 109.002  32.629  0.00  0.00    +0.105 C 
ENDBRANCH  47  50
ENDBRANCH  42  44
ENDBRANCH  20  42
TORSDOF 9
ENDMDL
MODEL 20
REMARK VINA RESULT:      -7.5     31.496     33.682
REMARK  Name = 
REMARK  17 active torsions:
REMARK  status: ('A' for Active; 'I' for Inactive)
REMARK    1  A    between atoms: O_1  and  C_18
REMARK    2  A    between atoms: O_1  and  C_26
REMARK    3  A    between atoms: O_5  and  C_30
REMARK    4  A    between atoms: O_5  and  C_40
REMARK    5  A    between atoms: O_6  and  C_29
REMARK    6  A    between atoms: O_6  and  C_43
REMARK    7  A    between atoms: O_8  and  C_31
REMARK    8  A    between atoms: O_9  and  C_34
REMARK    9  A    between atoms: O_9  and  C_48
REMARK   10  A    between atoms: N_11  and  C_45
REMARK   11  A    between atoms: N_11  and  C_50
REMARK   12  A    between atoms: N_11  and  C_51
REMARK   13  A    between atoms: C_27  and  C_33
REMARK   14  A    between atoms: C_32  and  C_39
REMARK   15  A    between atoms: C_36  and  C_41
REMARK   16  A    between atoms: C_41  and  C_47
REMARK   17  A    between atoms: C_46  and  C_49
REMARK                            x       y       z     vdW  Elec       q    Type
REMARK                         _______ _______ _______ _____ _____    ______ ____
ROOT
ATOM      1  O   UNL     1     123.926 129.380 161.285  0.00  0.00    -0.292 OA
ATOM      2  O   UNL     1     123.275 128.740 154.880  0.00  0.00    -0.461 OA
ATOM      3  O   UNL     1     125.086 127.479 155.355  0.00  0.00    -0.251 OA
ATOM      4  C   UNL     1     127.042 125.998 159.622  0.00  0.00    +0.006 C 
ATOM      5  C   UNL     1     126.217 127.035 158.882  0.00  0.00    +0.023 C 
ATOM      6  C   UNL     1     126.884 126.212 161.112  0.00  0.00    +0.018 C 
ATOM      7  C   UNL     1     124.775 126.443 158.895  0.00  0.00    +0.027 C 
ATOM      8  C   UNL     1     128.502 125.836 159.274  0.00  0.00    +0.036 C 
ATOM      9  C   UNL     1     128.058 125.395 161.651  0.00  0.00    +0.039 C 
ATOM     10  C   UNL     1     129.182 125.688 160.628  0.00  0.00    +0.122 C 
ATOM     11  C   UNL     1     124.089 127.663 158.205  0.00  0.00    +0.040 C 
ATOM     12  C   UNL     1     125.821 128.460 159.437  0.00  0.00    -0.015 C 
ATOM     13  C   UNL     1     125.410 125.934 161.381  0.00  0.00    -0.027 C 
ATOM     14  C   UNL     1     124.459 126.046 160.402  0.00  0.00    -0.026 C 
ATOM     15  C   UNL     1     124.518 128.754 159.127  0.00  0.00    -0.004 C 
ATOM     16  C   UNL     1     123.198 127.436 156.952  0.00  0.00    +0.129 C 
ATOM     17  C   UNL     1     123.703 129.574 160.083  0.00  0.00    +0.164 C 
ATOM     18  C   UNL     1     122.590 130.561 159.702  0.00  0.00    +0.086 C 
ATOM     19  C   UNL     1     123.951 127.858 155.658  0.00  0.00    +0.308 C 
ATOM     20  C   UNL     1     122.903 131.742 158.767  0.00  0.00    +0.132 C 
ATOM     21  C   UNL     1     121.195 129.951 159.631  0.00  0.00    +0.018 C 
ATOM     22  C   UNL     1     121.980 132.039 157.555  0.00  0.00    +0.032 C 
ATOM     23  C   UNL     1     123.718 130.112 155.039  0.00  0.00    +0.176 C 
ATOM     24  C   UNL     1     122.638 132.131 156.175  0.00  0.00    +0.006 C 
ATOM     25  C   UNL     1     122.424 130.839 155.407  0.00  0.00    +0.045 C 
ENDROOT
BRANCH  23  26
ATOM     26  C   UNL     1     124.316 130.665 153.725  0.00  0.00    +0.041 C 
ATOM     27  C   UNL     1     123.541 130.237 152.481  0.00  0.00    +0.007 C 
ENDBRANCH  23  26
BRANCH  10  28
ATOM     28  O   UNL     1     130.165 124.677 160.651  0.00  0.00    -0.345 OA
BRANCH  28  30
ATOM     29  O   UNL     1     130.971 122.864 159.260  0.00  0.00    -0.343 OA
ATOM     30  C   UNL     1     130.812 124.271 159.436  0.00  0.00    +0.282 C 
ATOM     31  C   UNL     1     132.074 125.072 159.063  0.00  0.00    +0.205 C 
ATOM     32  C   UNL     1     133.311 124.543 159.794  0.00  0.00    +0.179 C 
ATOM     33  C   UNL     1     132.094 122.238 159.876  0.00  0.00    +0.150 C 
ATOM     34  C   UNL     1     133.438 123.005 159.777  0.00  0.00    +0.177 C 
ATOM     35  C   UNL     1     132.229 120.850 159.255  0.00  0.00    +0.041 C 
BRANCH  31  36
ATOM     36  O   UNL     1     132.303 125.218 157.635  0.00  0.00    -0.372 OA
ATOM     37  C   UNL     1     131.193 125.148 156.752  0.00  0.00    +0.194 C 
ENDBRANCH  31  36
BRANCH  32  38
ATOM     38  O   UNL     1     134.495 125.160 159.250  0.00  0.00    -0.386 OA
ATOM     39  H   UNL     1     135.123 125.272 159.992  0.00  0.00    +0.210 HD
ENDBRANCH  32  38
BRANCH  34  40
ATOM     40  O   UNL     1     134.437 122.533 160.708  0.00  0.00    -0.375 OA
ATOM     41  C   UNL     1     135.630 121.980 160.172  0.00  0.00    +0.194 C 
ENDBRANCH  34  40
ENDBRANCH  28  30
ENDBRANCH  10  28
BRANCH  20  42
ATOM     42  O   UNL     1     124.279 131.819 158.467  0.00  0.00    -0.347 OA
BRANCH  42  44
ATOM     43  O   UNL     1     125.078 132.707 160.544  0.00  0.00    -0.347 OA
ATOM     44  C   UNL     1     124.976 132.890 159.138  0.00  0.00    +0.251 C 
ATOM     45  C   UNL     1     124.501 134.232 158.594  0.00  0.00    +0.063 C 
ATOM     46  C   UNL     1     123.597 134.987 159.538  0.00  0.00    +0.026 C 
ATOM     47  C   UNL     1     124.106 135.020 160.980  0.00  0.00    +0.085 C 
ATOM     48  C   UNL     1     124.497 133.610 161.486  0.00  0.00    +0.135 C 
ATOM     49  C   UNL     1     123.344 132.970 162.273  0.00  0.00    +0.039 C 
BRANCH  47  50
ATOM     50  N   UNL     1     125.125 136.080 161.212  0.00  0.00    -0.303 NA
ATOM     51  C   UNL     1     124.628 137.050 162.202  0.00  0.00    +0.105 C 
ATOM     52  C   UNL     1     126.443 135.607 161.639  0.00  0.00    +0.105 C 
ENDBRANCH  47  50
ENDBRANCH  42  44
ENDBRANCH  20  42
TORSDOF 9
ENDMDL
